<?xml version="1.0" encoding="UTF-8"?>

<!-- generated on 2026-02-28 21:10:18.293791 by Eclipse SUMO randomTrips.py v1_26_0+0000-fa7df22d7f1
<configuration>
    <net-file value="sumo_config/urban.net.xml"/>
    <output-trip-file value="sumo_config/urban.trips.xml"/>
    <vehicle-class value="passenger"/>
    <length value="True"/>
    <end value="200.0"/>
    <period value="2.0"/>
</configuration>
-->

<!-- generated on 2026-02-28T21:10:18.220915+05:30 by Eclipse SUMO duarouter 1.26.0
<duarouterConfiguration xmlns:xsi="http://www.w3.org/2001/XMLSchema-instance" xsi:noNamespaceSchemaLocation="http://sumo.dlr.de/xsd/duarouterConfiguration.xsd">

    <input>
        <net-file value="sumo_config/urban.net.xml"/>
        <route-files value="sumo_config/urban.trips.xml"/>
    </input>

    <output>
        <output-file value="routes.rou.xml"/>
        <alternatives-output value="NUL"/>
    </output>

    <time>
        <begin value="0"/>
        <end value="200.0"/>
    </time>

    <report>
        <no-warnings value="true"/>
        <ignore-errors value="true"/>
        <no-step-log value="true"/>
    </report>

</duarouterConfiguration>
-->

<routes xmlns:xsi="http://www.w3.org/2001/XMLSchema-instance" xsi:noNamespaceSchemaLocation="http://sumo.dlr.de/xsd/routes_file.xsd">
    <vType id="passenger" vClass="passenger"/>
    <vehicle id="0" type="passenger" depart="0.00">
        <route edges="C1D1 D1C1 C1B1 B1A1 A1A0 A0B0"/>
    </vehicle>
    <vehicle id="1" type="passenger" depart="2.00">
        <route edges="B1A1 A1B1 B1B0 B0A0"/>
    </vehicle>
    <vehicle id="2" type="passenger" depart="4.00">
        <route edges="C3B3 B3B2 B2C2 C2C1"/>
    </vehicle>
    <vehicle id="3" type="passenger" depart="6.00">
        <route edges="D1D2 D2C2 C2B2 B2A2 A2A1 A1B1"/>
    </vehicle>
    <vehicle id="4" type="passenger" depart="8.00">
        <route edges="B2C2 C2C1 C1B1 B1A1 A1A0 A0B0"/>
    </vehicle>
    <vehicle id="5" type="passenger" depart="10.00">
        <route edges="B0A0 A0A1 A1B1 B1C1 C1C0 C0B0"/>
    </vehicle>
    <vehicle id="6" type="passenger" depart="12.00">
        <route edges="A0B0 B0B1 B1B2 B2A2 A2A3 A3B3"/>
    </vehicle>
    <vehicle id="7" type="passenger" depart="14.00">
        <route edges="C2B2 B2B1 B1B0 B0C0 C0D0"/>
    </vehicle>
    <vehicle id="8" type="passenger" depart="16.00">
        <route edges="B0A0 A0A1 A1B1 B1C1 C1C0"/>
    </vehicle>
    <vehicle id="9" type="passenger" depart="18.00">
        <route edges="D0C0 C0B0 B0A0 A0A1"/>
    </vehicle>
    <vehicle id="10" type="passenger" depart="20.00">
        <route edges="D0C0 C0C1 C1C2 C2C3"/>
    </vehicle>
    <vehicle id="11" type="passenger" depart="22.00">
        <route edges="B1C1 C1B1 B1A1 A1A2 A2B2"/>
    </vehicle>
    <vehicle id="12" type="passenger" depart="24.00">
        <route edges="D2D3 D3C3 C3B3 B3B2 B2B1 B1C1"/>
    </vehicle>
    <vehicle id="13" type="passenger" depart="26.00">
        <route edges="A1B1"/>
    </vehicle>
    <vehicle id="14" type="passenger" depart="28.00">
        <route edges="D1C1 C1C0"/>
    </vehicle>
    <vehicle id="15" type="passenger" depart="30.00">
        <route edges="D0C0 C0C1 C1C2 C2C3 C3B3"/>
    </vehicle>
    <vehicle id="16" type="passenger" depart="32.00">
        <route edges="C0C1 C1C2 C2D2 D2D3 D3C3"/>
    </vehicle>
    <vehicle id="17" type="passenger" depart="34.00">
        <route edges="B2B1 B1B0 B0C0 C0D0"/>
    </vehicle>
    <vehicle id="18" type="passenger" depart="36.00">
        <route edges="D0D1 D1C1 C1C2"/>
    </vehicle>
    <vehicle id="19" type="passenger" depart="38.00">
        <route edges="D1D0 D0C0 C0C1 C1B1"/>
    </vehicle>
    <vehicle id="20" type="passenger" depart="40.00">
        <route edges="C2C3 C3B3 B3A3 A3A2 A2A1 A1A0"/>
    </vehicle>
    <vehicle id="21" type="passenger" depart="42.00">
        <route edges="B0A0 A0A1 A1B1 B1A1"/>
    </vehicle>
    <vehicle id="22" type="passenger" depart="44.00">
        <route edges="A1A2 A2B2 B2B1 B1B0 B0B1"/>
    </vehicle>
    <vehicle id="23" type="passenger" depart="46.00">
        <route edges="A1B1 B1A1"/>
    </vehicle>
    <vehicle id="24" type="passenger" depart="48.00">
        <route edges="C1D1 D1D2 D2C2 C2B2 B2A2"/>
    </vehicle>
    <vehicle id="25" type="passenger" depart="50.00">
        <route edges="B2A2 A2A3 A3B3"/>
    </vehicle>
    <vehicle id="26" type="passenger" depart="52.00">
        <route edges="B0C0 C0D0 D0D1 D1D2 D2D3"/>
    </vehicle>
    <vehicle id="27" type="passenger" depart="54.00">
        <route edges="C2B2 B2B1 B1C1 C1C2"/>
    </vehicle>
    <vehicle id="28" type="passenger" depart="56.00">
        <route edges="A3A2 A2B2 B2C2 C2C3 C3B3"/>
    </vehicle>
    <vehicle id="29" type="passenger" depart="58.00">
        <route edges="A2B2 B2B1"/>
    </vehicle>
    <vehicle id="30" type="passenger" depart="60.00">
        <route edges="D3D2 D2C2 C2C1 C1D1"/>
    </vehicle>
    <vehicle id="31" type="passenger" depart="62.00">
        <route edges="C0D0 D0D1 D1D2 D2C2 C2C1"/>
    </vehicle>
    <vehicle id="32" type="passenger" depart="64.00">
        <route edges="D1C1 C1C2 C2C3 C3D3"/>
    </vehicle>
    <vehicle id="33" type="passenger" depart="66.00">
        <route edges="B0A0 A0A1 A1A0 A0B0"/>
    </vehicle>
    <vehicle id="34" type="passenger" depart="68.00">
        <route edges="B1B2 B2B1 B1B0 B0C0"/>
    </vehicle>
    <vehicle id="35" type="passenger" depart="70.00">
        <route edges="B0A0 A0A1 A1A2 A2B2 B2C2 C2D2 D2D3"/>
    </vehicle>
    <vehicle id="36" type="passenger" depart="72.00">
        <route edges="D1D2 D2C2 C2C1 C1B1 B1B2"/>
    </vehicle>
    <vehicle id="37" type="passenger" depart="74.00">
        <route edges="C2B2 B2B1"/>
    </vehicle>
    <vehicle id="38" type="passenger" depart="76.00">
        <route edges="D2C2 C2C3 C3B3 B3B2"/>
    </vehicle>
    <vehicle id="39" type="passenger" depart="78.00">
        <route edges="B0C0 C0B0 B0B1"/>
    </vehicle>
    <vehicle id="40" type="passenger" depart="80.00">
        <route edges="C0D0 D0D1 D1C1 C1B1 B1B0 B0C0"/>
    </vehicle>
    <vehicle id="41" type="passenger" depart="82.00">
        <route edges="C1C0 C0D0 D0D1 D1D2 D2C2"/>
    </vehicle>
    <vehicle id="42" type="passenger" depart="84.00">
        <route edges="B2B3 B3B2 B2B1 B1B0 B0A0"/>
    </vehicle>
    <vehicle id="43" type="passenger" depart="86.00">
        <route edges="D3D2 D2D1 D1D0 D0C0 C0B0"/>
    </vehicle>
    <vehicle id="44" type="passenger" depart="88.00">
        <route edges="A1B1 B1A1 A1A0"/>
    </vehicle>
    <vehicle id="45" type="passenger" depart="90.00">
        <route edges="A2A1 A1B1 B1C1 C1D1"/>
    </vehicle>
    <vehicle id="46" type="passenger" depart="92.00">
        <route edges="D0C0 C0B0 B0B1 B1B2 B2C2"/>
    </vehicle>
    <vehicle id="47" type="passenger" depart="94.00">
        <route edges="A1A2 A2B2 B2B1"/>
    </vehicle>
    <vehicle id="48" type="passenger" depart="96.00">
        <route edges="D3D2 D2D1 D1D0 D0C0 C0C1"/>
    </vehicle>
    <vehicle id="49" type="passenger" depart="98.00">
        <route edges="D3C3 C3C2 C2C1 C1D1 D1D0"/>
    </vehicle>
    <vehicle id="50" type="passenger" depart="100.00">
        <route edges="A0A1 A1A2 A2B2 B2C2 C2D2"/>
    </vehicle>
    <vehicle id="51" type="passenger" depart="102.00">
        <route edges="C2C1 C1C0 C0C1"/>
    </vehicle>
    <vehicle id="52" type="passenger" depart="104.00">
        <route edges="B0C0 C0C1 C1D1"/>
    </vehicle>
    <vehicle id="53" type="passenger" depart="106.00">
        <route edges="A2A1 A1B1 B1B2 B2C2"/>
    </vehicle>
    <vehicle id="54" type="passenger" depart="108.00">
        <route edges="B3A3 A3A2 A2B2 B2C2 C2D2 D2D3"/>
    </vehicle>
    <vehicle id="55" type="passenger" depart="110.00">
        <route edges="D1D2 D2C2 C2B2 B2B1 B1B0 B0C0"/>
    </vehicle>
    <vehicle id="56" type="passenger" depart="112.00">
        <route edges="C0B0 B0B1 B1B2 B2B3 B3A3 A3A2"/>
    </vehicle>
    <vehicle id="57" type="passenger" depart="114.00">
        <route edges="D2C2 C2C1 C1D1 D1D0"/>
    </vehicle>
    <vehicle id="58" type="passenger" depart="116.00">
        <route edges="B1B0 B0C0 C0C1 C1D1"/>
    </vehicle>
    <vehicle id="59" type="passenger" depart="118.00">
        <route edges="C1C2 C2B2 B2A2 A2B2"/>
    </vehicle>
    <vehicle id="60" type="passenger" depart="120.00">
        <route edges="C3C2 C2C1 C1C0 C0C1"/>
    </vehicle>
    <vehicle id="61" type="passenger" depart="122.00">
        <route edges="C3D3 D3D2 D2D1 D1D0 D0C0 C0C1"/>
    </vehicle>
    <vehicle id="62" type="passenger" depart="124.00">
        <route edges="A0A1 A1B1 B1B2"/>
    </vehicle>
    <vehicle id="63" type="passenger" depart="126.00">
        <route edges="A0A1 A1A2 A2B2 B2C2 C2D2 D2D1"/>
    </vehicle>
    <vehicle id="64" type="passenger" depart="128.00">
        <route edges="D1D2 D2C2 C2C1 C1C0 C0D0 D0D1"/>
    </vehicle>
    <vehicle id="65" type="passenger" depart="130.00">
        <route edges="B1B0 B0A0 A0A1 A1A0"/>
    </vehicle>
    <vehicle id="66" type="passenger" depart="132.00">
        <route edges="D1D2 D2D3"/>
    </vehicle>
    <vehicle id="67" type="passenger" depart="134.00">
        <route edges="A1B1 B1B2 B2B3 B3C3"/>
    </vehicle>
    <vehicle id="68" type="passenger" depart="136.00">
        <route edges="A1A2 A2A3 A3B3 B3C3 C3C2"/>
    </vehicle>
    <vehicle id="69" type="passenger" depart="138.00">
        <route edges="C3C2 C2B2 B2A2 A2A3"/>
    </vehicle>
    <vehicle id="70" type="passenger" depart="140.00">
        <route edges="B3B2 B2B1 B1B0 B0C0 C0D0"/>
    </vehicle>
    <vehicle id="71" type="passenger" depart="142.00">
        <route edges="B0C0 C0C1 C1D1 D1D0"/>
    </vehicle>
    <vehicle id="72" type="passenger" depart="144.00">
        <route edges="B2C2 C2C1 C1C0 C0B0 B0A0"/>
    </vehicle>
    <vehicle id="73" type="passenger" depart="146.00">
        <route edges="C0C1 C1C2 C2C3 C3B3"/>
    </vehicle>
    <vehicle id="74" type="passenger" depart="148.00">
        <route edges="A3B3 B3B2 B2B1 B1B0"/>
    </vehicle>
    <vehicle id="75" type="passenger" depart="150.00">
        <route edges="D3D2 D2C2 C2B2"/>
    </vehicle>
    <vehicle id="76" type="passenger" depart="152.00">
        <route edges="B3A3 A3A2 A2B2 B2C2 C2C1 C1C0 C0B0"/>
    </vehicle>
    <vehicle id="77" type="passenger" depart="154.00">
        <route edges="A2A1 A1B1 B1B0 B0A0"/>
    </vehicle>
    <vehicle id="78" type="passenger" depart="156.00">
        <route edges="B1C1 C1C0"/>
    </vehicle>
    <vehicle id="79" type="passenger" depart="158.00">
        <route edges="B0A0"/>
    </vehicle>
    <vehicle id="80" type="passenger" depart="160.00">
        <route edges="A1A2 A2B2 B2C2 C2C1 C1D1"/>
    </vehicle>
    <vehicle id="81" type="passenger" depart="162.00">
        <route edges="B0A0 A0A1 A1B1 B1C1 C1D1 D1D2 D2C2"/>
    </vehicle>
    <vehicle id="82" type="passenger" depart="164.00">
        <route edges="D1D0 D0C0 C0B0 B0A0 A0A1 A1A2"/>
    </vehicle>
    <vehicle id="83" type="passenger" depart="166.00">
        <route edges="B0B1 B1B2 B2C2 C2C1"/>
    </vehicle>
    <vehicle id="84" type="passenger" depart="168.00">
        <route edges="B0A0 A0A1 A1A2 A2A3"/>
    </vehicle>
    <vehicle id="85" type="passenger" depart="170.00">
        <route edges="D2D1 D1C1 C1B1"/>
    </vehicle>
    <vehicle id="86" type="passenger" depart="172.00">
        <route edges="B3B2 B2C2 C2C3 C3D3"/>
    </vehicle>
    <vehicle id="87" type="passenger" depart="174.00">
        <route edges="D0C0 C0B0 B0A0 A0A1 A1A2 A2A3 A3B3"/>
    </vehicle>
    <vehicle id="88" type="passenger" depart="176.00">
        <route edges="A1B1 B1B2 B2C2"/>
    </vehicle>
    <vehicle id="89" type="passenger" depart="178.00">
        <route edges="B2C2 C2C3 C3B3 B3B2"/>
    </vehicle>
    <vehicle id="90" type="passenger" depart="180.00">
        <route edges="C3B3 B3B2 B2C2 C2C1"/>
    </vehicle>
    <vehicle id="91" type="passenger" depart="182.00">
        <route edges="D3D2 D2C2 C2B2 B2A2 A2A1 A1B1"/>
    </vehicle>
    <vehicle id="92" type="passenger" depart="184.00">
        <route edges="B2B3 B3B2 B2B1 B1C1"/>
    </vehicle>
    <vehicle id="93" type="passenger" depart="186.00">
        <route edges="D1D0 D0C0 C0B0 B0B1"/>
    </vehicle>
    <vehicle id="94" type="passenger" depart="188.00">
        <route edges="A3B3 B3A3"/>
    </vehicle>
    <vehicle id="95" type="passenger" depart="190.00">
        <route edges="B2C2 C2C1 C1B1 B1A1"/>
    </vehicle>
    <vehicle id="96" type="passenger" depart="192.00">
        <route edges="B0B1 B1B2 B2C2 C2D2 D2D1"/>
    </vehicle>
    <vehicle id="97" type="passenger" depart="194.00">
        <route edges="B3A3 A3A2 A2A1 A1B1 B1C1 C1D1 D1D0"/>
    </vehicle>
    <vehicle id="98" type="passenger" depart="196.00">
        <route edges="C0D0 D0D1 D1C1 C1B1 B1A1 A1A0"/>
    </vehicle>
    <vehicle id="99" type="passenger" depart="198.00">
        <route edges="D3D2 D2D1 D1C1"/>
    </vehicle>
</routes>
