<?xml version="1.0" encoding="UTF-8"?>

<!-- generated on 2026-02-28 22:06:31.400623 by Eclipse SUMO randomTrips.py v1_26_0+0000-fa7df22d7f1
<configuration>
    <net-file value="sumo_config/urban.net.xml"/>
    <route-file value="sumo_config/urban.rou.xml"/>
    <end value="20.0"/>
    <period value="2.0"/>
</configuration>
-->

<routes xmlns:xsi="http://www.w3.org/2001/XMLSchema-instance" xsi:noNamespaceSchemaLocation="http://sumo.dlr.de/xsd/routes_file.xsd">
    <trip id="0" depart="0.00" from="C1D1" to="A0B0"/>
    <trip id="1" depart="2.00" from="B1A1" to="B0A0"/>
    <trip id="2" depart="4.00" from="C3B3" to="C2C1"/>
    <trip id="3" depart="6.00" from="D1D2" to="A1B1"/>
    <trip id="4" depart="8.00" from="B2C2" to="A0B0"/>
    <trip id="5" depart="10.00" from="B0A0" to="C0B0"/>
    <trip id="6" depart="12.00" from="A0B0" to="A3B3"/>
    <trip id="7" depart="14.00" from="C2B2" to="C0D0"/>
    <trip id="8" depart="16.00" from="B0A0" to="C1C0"/>
    <trip id="9" depart="18.00" from="D0C0" to="A0A1"/>
</routes>
