<?xml version="1.0" encoding="UTF-8"?>
<configuration>
    <input>
        <net-file value="osm_network.net.xml"/>
        <route-files value="osm_routes.rou.xml"/>
    </input>
    <time>
        <begin value="0"/>
        <end value="10000"/>
        <step-length value="1.0"/>
    </time>
    <processing>
        <collision.action value="warn"/>
        <time-to-teleport value="-1"/>
    </processing>
</configuration>
