<?xml version="1.0" encoding="UTF-8"?>

<!-- generated on 2026-03-02T21:49:29.781079+05:30 by Eclipse SUMO polyconvert 1.26.0
<polyconvertConfiguration xmlns:xsi="http://www.w3.org/2001/XMLSchema-instance" xsi:noNamespaceSchemaLocation="http://sumo.dlr.de/xsd/polyconvertConfiguration.xsd">

    <input>
        <net-file value="sumo_config\osm_network.net.xml"/>
        <osm-files value="d:\last project\project\map.osm"/>
        <osm.keep-full-type value="true"/>
        <type-file value="C:\Program Files (x86)\Eclipse\Sumo\\data\typemap\osmPolyconvert.typ.xml"/>
    </input>

    <output>
        <output-file value="sumo_config\osm_buildings.poly.xml"/>
    </output>

    <report>
        <no-warnings value="true"/>
    </report>

</polyconvertConfiguration>
-->

<additional xmlns:xsi="http://www.w3.org/2001/XMLSchema-instance" xsi:noNamespaceSchemaLocation="http://sumo.dlr.de/xsd/additional_file.xsd">
    <location netOffset="-711994.93,-1205221.01" convBoundary="-2713.04,-632.82,10247.77,20789.31" origBoundary="76.915600,10.890451,77.033381,11.084514" projParameter="+proj=utm +zone=43 +ellps=WGS84 +datum=WGS84 +units=m +no_defs"/>

    <poly id="1067550487" type="building.yes" color="255,230,230" fill="1" layer="-1.00" shape="4303.967966,3810.745526 4359.145570,3816.318109 4354.133568,3865.374634 4317.650890,3861.683673 4317.031710,3867.742489 4309.951475,3867.032272 4310.068418,3865.871357 4298.442881,3864.699874 4303.967966,3810.745526"/>
    <poly id="1067550488" type="building.yes" color="255,230,230" fill="1" layer="-1.00" shape="4183.116309,3771.264331 4208.323955,3772.026856 4208.241184,3774.648395 4221.905293,3775.069801 4220.751835,3812.623278 4181.890987,3811.450475 4183.116309,3771.264331"/>
    <poly id="1067550489" type="building.yes" color="255,230,230" fill="1" layer="-1.00" shape="4117.490026,3902.049233 4088.773657,3901.164215 4089.189354,3887.768887 4117.905663,3888.664966 4117.490026,3902.049233"/>
    <poly id="1067550490" type="building.yes" color="255,230,230" fill="1" layer="-1.00" shape="4106.901526,3699.050885 4105.292618,3752.754252 4107.336732,3752.822952 4107.000033,3764.172027 4076.818519,3763.277451 4076.734745,3766.053872 4071.454892,3765.897613 4071.551482,3762.833622 4062.063067,3762.550245 4063.306769,3721.202564 4065.646076,3721.273193 4065.869518,3713.862028 4063.235090,3713.778405 4063.387720,3708.833964 4066.131478,3708.918304 4066.455418,3697.845738 4106.901526,3699.050885"/>
    <poly id="1067550495" type="building.yes" color="255,230,230" fill="1" layer="-1.00" shape="3370.197692,3971.323955 3406.533918,3975.643543 3402.858190,4006.121854 3388.393713,4004.390045 3387.977603,4007.839167 3379.587272,4006.844008 3380.107409,4002.532605 3365.642859,4000.811869 3367.654047,3984.141112 3368.637287,3984.258164 3370.197692,3971.323955"/>
    <poly id="1282956539" type="building.yes" color="255,230,230" fill="1" layer="-1.00" shape="4334.862463,1362.909370 4344.713202,1364.743975 4353.228245,1313.342754 4341.809825,1312.128522 4334.862463,1362.909370"/>
    <poly id="1282956540" type="building.yes" color="255,230,230" fill="1" layer="-1.00" shape="4358.121856,1350.880445 4367.328227,1352.600206 4373.816219,1323.578501 4364.810051,1321.340059 4358.121856,1350.880445"/>
    <poly id="1282956541" type="building.yes" color="255,230,230" fill="1" layer="-1.00" shape="4375.694748,1273.760222 4374.338941,1305.515021 4411.123833,1306.906265 4411.753336,1275.865846 4375.694748,1273.760222"/>
    <poly id="1282956542" type="building.yes" color="255,230,230" fill="1" layer="-1.00" shape="4422.029663,1306.247413 4421.887350,1296.244963 4465.607730,1297.161650 4466.582453,1308.618886 4422.029663,1306.247413"/>
    <poly id="1282956543" type="building.yes" color="255,230,230" fill="0" layer="-1.00" shape="4540.229772,1356.353680 4456.604122,1359.700753 4456.311939,1352.551736 4387.670242,1355.300029 4388.856482,1384.571080 4412.426048,1383.629976"/>
    <poly id="1282956544" type="building.yes" color="255,230,230" fill="1" layer="-1.00" shape="4233.649074,1265.064782 4244.984664,1265.570359 4241.377218,1300.563124 4312.688183,1307.656460 4311.385617,1321.245132 4271.751063,1317.545197 4269.185721,1325.261895 4262.182192,1324.441654 4263.096522,1316.714163 4222.933239,1313.608266 4223.703292,1302.859465 4230.886829,1302.906420 4231.621176,1290.929324 4233.649074,1265.064782"/>
    <poly id="1282956545" type="building.yes" color="255,230,230" fill="1" layer="-1.00" shape="4196.483484,1352.036341 4198.588480,1334.447888 4209.387058,1335.138030 4207.483652,1353.668207 4214.707528,1355.906020 4211.116260,1375.044728 4192.253959,1373.472109 4196.483484,1352.036341"/>
    <poly id="1282956546" type="building.yes" color="255,230,230" fill="1" layer="-1.00" shape="4225.616075,1354.826708 4229.767953,1345.272756 4295.981648,1367.689058 4292.348425,1378.186804 4262.955342,1368.413527 4261.123439,1376.002257 4252.644204,1373.446444 4255.522354,1366.384545 4225.616075,1354.826708"/>
    <poly id="1282956551" type="building.yes" color="255,230,230" fill="1" layer="-1.00" shape="4243.078387,1246.063806 4244.704917,1236.438028 4286.916283,1242.389611 4286.843423,1240.154283 4280.444059,1238.906511 4259.165132,1235.669590 4248.099754,1233.970906 4249.800001,1224.777091 4280.598433,1228.673673 4280.674621,1230.400096 4290.101005,1231.922121 4289.483368,1234.407398 4298.910258,1235.851984 4297.990857,1244.353896 4329.824012,1248.865794 4328.718882,1259.014971 4278.546873,1251.462379 4243.078387,1246.063806"/>
    <poly id="1282956552" type="building.yes" color="255,230,230" fill="1" layer="-1.00" shape="4466.287981,1194.871778 4467.898134,1149.322287 4505.981166,1151.208898 4506.321499,1156.012742 4509.749027,1156.909199 4508.852337,1197.020061 4466.287981,1194.871778"/>
    <poly id="1282956553" type="building.yes" color="255,230,230" fill="1" layer="-1.00" shape="4378.559031,1218.671043 4378.738022,1171.242456 4420.884873,1172.027063 4421.595664,1218.819791 4378.559031,1218.671043"/>
    <poly id="1282956554" type="building.yes" color="255,230,230" fill="1" layer="-1.00" shape="4425.575188,1182.136709 4434.551483,1182.261813 4434.419170,1175.744471 4439.207856,1175.831117 4463.656057,1175.991069 4463.417778,1185.670186 4458.454512,1185.527076 4458.652275,1190.396367 4442.290535,1190.997391 4442.092744,1202.845243 4433.531870,1202.733917 4432.821622,1185.945748 4425.672012,1185.721958 4425.575188,1182.136709"/>
    <poly id="1288889416" type="landuse.education" color="194,194,130" fill="1" layer="-3.00" shape="7390.544613,1361.316551 7450.529386,1389.617386 7488.479803,1411.521074 7522.299105,1327.649407 7472.967934,1316.955280 7437.659460,1303.909146 7405.893666,1292.523995 7393.429496,1348.402088 7390.544613,1361.316551"/>
    <poly id="1288889417" type="building.yes" color="255,230,230" fill="1" layer="-1.00" shape="7457.652410,1392.209321 7477.436268,1399.941426 7478.548901,1397.050088 7483.274884,1398.353785 7486.785234,1390.057087 7481.345974,1387.487381 7485.588903,1379.195543 7470.896613,1372.050408 7469.034665,1377.459324 7464.139681,1375.258339 7461.172296,1382.474388 7465.539881,1383.410598 7464.968003,1387.201693 7459.695318,1385.894372 7457.652410,1392.209321"/>
    <poly id="1288889418" type="building.yes" color="255,230,230" fill="1" layer="-1.00" shape="7464.982437,1357.008634 7470.249181,1359.212085 7470.997395,1356.860456 7479.702335,1359.993953 7485.248550,1348.092894 7489.599186,1349.936227 7490.910840,1345.065787 7486.374325,1343.221220 7491.366505,1330.774358 7482.458726,1328.546746 7482.475462,1326.024307 7476.660981,1325.620623 7475.539979,1329.773181 7475.334942,1332.659476 7472.434859,1331.378960 7470.254072,1330.457259 7468.037390,1336.594034 7472.388102,1338.426301 7470.365596,1341.665644 7468.008618,1340.930859 7463.953847,1347.232460 7473.036710,1351.087610 7472.404075,1352.499582 7470.056490,1351.997198 7469.429725,1354.172612 7466.646541,1353.401807 7464.982437,1357.008634"/>
    <poly id="128974485" type="landuse.industrial" color="209,209,204" fill="1" layer="-3.00" shape="5846.838896,4503.712087 6055.468607,3883.340916 6545.828436,4212.036015 6589.044318,4212.676294 6615.802391,4190.648540 6619.433026,4141.029398 6612.861456,4060.231318 6840.448231,4298.582332 6821.764321,4316.503474 6888.861337,4582.092522 7120.754123,4663.457449 7042.796690,5167.538146 6508.114459,4656.771418 6077.682420,4486.052668 6042.576196,4600.064912 5995.073293,4563.295918 5846.838896,4503.712087"/>
    <poly id="1303123592" type="natural.water" color="181,209,209" fill="1" layer="-4.00" shape="7200.308451,1293.351743 7285.194803,1331.022326 7302.342659,1335.583653 7313.984071,1265.239705 7208.081207,1247.399969 7186.943167,1280.650455 7182.386475,1291.750444 7200.308451,1293.351743"/>
    <poly id="1354882756" type="building.yes" color="255,230,230" fill="1" layer="-1.00" shape="4551.185324,3037.147477 4625.725768,3074.732664 4634.686234,3057.189159 4560.134820,3019.603886 4551.185324,3037.147477"/>
    <poly id="1354883354" type="building.yes" color="255,230,230" fill="1" layer="-1.00" shape="4370.724757,2961.871723 4376.517434,2965.549602 4385.067208,2952.262860 4379.263668,2948.573845 4370.724757,2961.871723"/>
    <poly id="1443864882" type="building.apartments" color="255,230,230" fill="1" layer="-1.00" shape="4174.889392,1301.666412 4208.145841,1314.252876 4212.676755,1301.913369 4175.861010,1290.188732 4174.889392,1301.666412"/>
    <poly id="1443866756" type="amenity.college" color="237,199,199" fill="1" layer="-2.00" shape="4572.119147,1290.468281 4739.238613,1347.367837 4766.171628,1288.696768 4692.787529,1265.889556 4691.464908,1157.313358 4583.248023,1150.519752 4572.119147,1290.468281"/>
    <poly id="1443866757" type="landuse.industrial" color="209,209,204" fill="1" layer="-3.00" shape="3905.875583,1036.507469 4110.873021,1078.427075 4153.942935,896.070364 3938.760839,847.988193 3905.875583,1036.507469"/>
    <poly id="1443876955" type="amenity.college" color="237,199,199" fill="1" layer="-2.00" shape="3686.918664,3793.564413 3847.110845,3913.025301 3895.569215,3957.939653 4116.342920,4162.379948 4142.128882,4124.877168 4143.473380,3919.578204 4120.675493,3856.377310 4124.105747,3686.473531 4098.071738,3643.243483 3710.851093,3566.131468 3692.692748,3502.186938 3646.295125,3496.495909 3513.255116,3484.862418 3506.509901,3570.173967 3563.706959,3581.312227 3686.918664,3793.564413"/>
    <poly id="1447852909" type="amenity.school" color="237,199,199" fill="1" layer="-2.00" shape="2251.827669,3768.951226 2355.089529,3836.898848 2461.952036,3826.828157 2458.997893,3805.279345 2346.090388,3732.655261 2321.516256,3764.015669 2267.548224,3732.145382 2240.461458,3731.195138 2251.827669,3768.951226"/>
    <poly id="1447852910" type="leisure.pitch" color="207,245,201" fill="1" layer="-2.00" shape="2266.608912,3698.307063 2265.387623,3707.913329 2270.369382,3715.247582 2279.601534,3722.996647 2288.861116,3726.519631 2301.255667,3725.438420 2312.921311,3717.061625 2318.806565,3704.797202 2324.873084,3662.927988 2323.796569,3650.231147 2318.056020,3640.203526 2308.431212,3633.989733 2295.656558,3634.670194 2286.749588,3635.774050 2275.476561,3642.615578 2271.141284,3655.277289 2267.098838,3681.781356 2266.608912,3698.307063"/>
    <poly id="1447852910#1" type="sport.soccer" color="79,230,125" fill="1" layer="-2.00" shape="2266.608912,3698.307063 2265.387623,3707.913329 2270.369382,3715.247582 2279.601534,3722.996647 2288.861116,3726.519631 2301.255667,3725.438420 2312.921311,3717.061625 2318.806565,3704.797202 2324.873084,3662.927988 2323.796569,3650.231147 2318.056020,3640.203526 2308.431212,3633.989733 2295.656558,3634.670194 2286.749588,3635.774050 2275.476561,3642.615578 2271.141284,3655.277289 2267.098838,3681.781356 2266.608912,3698.307063"/>
    <poly id="1447852911" type="building.residential" color="255,230,230" fill="1" layer="-1.00" shape="2303.105907,3738.527506 2319.678451,3749.012673 2349.787671,3700.384860 2335.527935,3690.678079 2303.105907,3738.527506"/>
    <poly id="1451083334" type="building.yes" color="255,230,230" fill="1" layer="-1.00" shape="3965.017509,3981.450576 4003.331614,3980.926848 4003.052134,3965.159360 3964.743078,3964.908672 3965.017509,3981.450576"/>
    <poly id="1451083348" type="building.yes" color="255,230,230" fill="1" layer="-1.00" shape="3928.600943,3864.059685 4008.635591,3873.810397 4014.667469,3839.242866 3933.097835,3826.793655 3928.600943,3864.059685"/>
    <poly id="1451298645" type="amenity.theatre" color="237,199,199" fill="1" layer="-1.00" shape="4266.720402,1259.140659 4309.207907,1264.662600 4306.632297,1299.031491 4263.266296,1294.090174 4266.720402,1259.140659"/>
    <poly id="1451298646" type="amenity.parking" color="184,184,179" fill="1" layer="-1.00" shape="4296.588059,1400.363895 4339.545693,1424.254599 4350.106038,1379.449612 4305.633656,1363.127580 4296.588059,1400.363895"/>
    <poly id="1451298647" type="amenity.college" color="237,199,199" fill="0" layer="-2.00" shape="4494.493996,1327.576526 4500.859367,1290.577144 4503.544718,1229.446023 4571.367548,1231.571623 4573.624697,1182.419600 4577.126204,1135.267177 4535.569487,1132.848825 4453.634026,1126.791923 4451.630735,1153.884707 4352.234937,1150.900146 4338.557373,1227.614368"/>
    <poly id="1451298648" type="building.yes" color="255,230,230" fill="0" layer="-1.00" shape="4412.426048,1383.629976 4412.803832,1392.737813 4447.266819,1391.359081 4446.833576,1380.701970 4541.068178,1376.937530 4540.229772,1356.353680"/>
    <poly id="1460014818" type="amenity.community_centre" color="237,199,199" fill="1" layer="-1.00" shape="3275.901323,1621.515042 3319.475060,1656.604680 3365.561802,1614.730471 3320.656304,1577.618535 3275.901323,1621.515042"/>
    <poly id="1460014818#1" type="building.yes" color="255,230,230" fill="1" layer="-1.00" shape="3275.901323,1621.515042 3319.475060,1656.604680 3365.561802,1614.730471 3320.656304,1577.618535 3275.901323,1621.515042"/>
    <poly id="1460014821" type="landuse.residential" color="235,235,227" fill="1" layer="-3.00" shape="2687.188265,1496.509306 2735.494628,1528.619471 2779.733676,1564.055560 2793.219459,1511.248406 2822.267531,1498.393161 2801.629814,1460.432916 2655.435006,1355.055245 2623.695001,1417.103709 2700.482665,1473.163060 2687.188265,1496.509306"/>
    <poly id="1460015737" type="natural.water" color="181,209,209" fill="1" layer="-4.00" shape="2777.635317,2131.169588 2795.684841,2146.687304 2798.960871,2132.182171 2793.342899,2108.303752 2789.053692,2083.537822 2791.867815,2061.030753 2805.424721,2027.563140 2821.627139,1995.860757 2829.248204,1985.753953 2833.381506,1965.523478 2839.792121,1936.412719 2841.646035,1925.383358 2850.988973,1924.570050 2870.888888,1939.712592 2896.115159,1957.987559 2916.032295,1970.474998 2941.264849,1986.094800 2975.860667,1996.088847 2967.589159,1971.695268 2953.054148,1950.403016 2939.792167,1940.160465 2912.228666,1939.981284 2900.238002,1937.690636 2892.302952,1928.810357 2877.313846,1908.400283 2877.408608,1893.819157 2878.011824,1869.981154 2880.797313,1851.888246 2818.230989,1857.201546 2815.274577,1879.729820 2818.201812,1907.131084 2816.289980,1928.758934 2813.887382,1955.240487 2805.722810,1981.684603 2799.829930,1998.429696 2789.486542,2016.916039 2776.032934,2034.486031 2766.997655,2056.952684 2765.985763,2076.384735 2768.908687,2106.131435 2777.635317,2131.169588"/>
    <poly id="1460015738" type="waterway.dam" color="181,209,209" fill="0" layer="-4.00" shape="2816.051309,1854.421502 2880.901605,1849.300056"/>
    <poly id="1460015739" type="amenity.fuel" color="237,199,199" fill="1" layer="-1.00" shape="3146.519486,2078.294847 3170.144987,2075.372943 3164.879575,2051.120548 3143.184254,2054.829469 3146.519486,2078.294847"/>
    <poly id="1464558900" type="building.yes" color="255,230,230" fill="1" layer="-1.00" shape="4821.121090,2443.560455 4863.399458,2459.061459 4925.492852,2489.141734 4969.992258,2439.459270 4867.444123,2387.550357 4821.121090,2443.560455"/>
    <poly id="1464558900#1" type="shop.car" color="237,199,255" fill="1" layer="-1.00" shape="4821.121090,2443.560455 4863.399458,2459.061459 4925.492852,2489.141734 4969.992258,2439.459270 4867.444123,2387.550357 4821.121090,2443.560455"/>
    <poly id="1464559031" type="building.yes" color="255,230,230" fill="1" layer="-1.00" shape="6211.281300,3567.670619 6236.875049,3596.096611 6250.298941,3581.614378 6257.889405,3510.115242 6221.048091,3501.042861 6211.281300,3567.670619"/>
    <poly id="1464559031#1" type="shop.car" color="237,199,255" fill="1" layer="-1.00" shape="6211.281300,3567.670619 6236.875049,3596.096611 6250.298941,3581.614378 6257.889405,3510.115242 6221.048091,3501.042861 6211.281300,3567.670619"/>
    <poly id="1464559032" type="natural.water" color="181,209,209" fill="1" layer="-4.00" shape="6599.692944,3714.212885 6618.739830,3724.053011 6638.721254,3728.157237 6645.766421,3737.475346 6647.979204,3740.145309 6635.435675,3753.748130 6644.219051,3769.704958 6657.539933,3772.448496 6675.721631,3779.196138 6688.608907,3779.724061 6702.399361,3777.602664 6707.347911,3768.363997 6714.614644,3745.886273 6719.607107,3730.020688 6717.936189,3713.225855 6700.677289,3702.512409 6679.329828,3703.256100 6664.726963,3694.319412 6656.360381,3681.463201 6638.178623,3674.715580 6620.893382,3667.973908 6609.360356,3664.368193 6598.217133,3669.593958 6592.779397,3685.014051 6594.454099,3699.596136 6599.692944,3714.212885"/>
    <poly id="1464559288" type="leisure.pitch" color="207,245,201" fill="1" layer="-2.00" shape="6338.658133,3668.628687 6354.706557,3687.144929 6383.258595,3699.725203 6410.200026,3701.242148 6432.836968,3690.682190 6450.823726,3670.720462 6456.045430,3644.976431 6450.134547,3622.854037 6437.114630,3604.357782 6418.686791,3590.173819 6394.815847,3582.315530 6374.613572,3580.179363 6359.466791,3579.072383 6342.599056,3633.184328 6333.648997,3662.244960 6338.658133,3668.628687"/>
    <poly id="1464559288#1" type="sport.cricket" color="79,230,125" fill="1" layer="-2.00" shape="6338.658133,3668.628687 6354.706557,3687.144929 6383.258595,3699.725203 6410.200026,3701.242148 6432.836968,3690.682190 6450.823726,3670.720462 6456.045430,3644.976431 6450.134547,3622.854037 6437.114630,3604.357782 6418.686791,3590.173819 6394.815847,3582.315530 6374.613572,3580.179363 6359.466791,3579.072383 6342.599056,3633.184328 6333.648997,3662.244960 6338.658133,3668.628687"/>
    <poly id="1464559289" type="amenity.fuel" color="237,199,199" fill="1" layer="-1.00" shape="6434.485459,3798.465268 6469.273866,3835.172739 6489.128161,3787.442268 6453.225363,3767.123915 6434.485459,3798.465268"/>
    <poly id="1464561917" type="amenity.college" color="237,199,199" fill="1" layer="-2.00" shape="4694.032235,1896.979158 4778.043719,1897.972410 4773.839259,1928.867755 4847.176528,1930.233760 4867.697890,1852.192544 4778.139718,1814.951384 4773.775916,1803.438704 4764.508004,1792.778969 4692.990282,1785.683094 4694.032235,1896.979158"/>
    <poly id="1464562131" type="amenity.college" color="237,199,199" fill="1" layer="-2.00" shape="4560.743506,2039.103431 4680.873538,2132.957989 4694.399657,2094.489832 4719.152293,2058.119917 4579.235800,1903.484749 4568.214139,1948.563273 4561.221818,2002.806757 4560.743506,2039.103431"/>
    <poly id="203608614" type="waterway.stream" color="181,209,209" fill="0" layer="-4.00" shape="-2023.917582,4299.109652 -1336.815741,4051.047006 -7.261017,4071.121868 33.711202,4071.927187 453.905551,3825.548051 518.765862,3787.520228 683.628213,3690.847793 876.357066,3684.611121 1085.759014,3641.188312 1213.961582,3699.037037 1359.819255,3691.195000 1443.384554,3702.765452 1682.442099,3598.069375 1810.818126,3573.354910 1861.192913,3560.836462 2011.909046,3434.494341 2044.763343,3380.639983 2099.834701,3338.579538 2129.682814,3340.321958 2165.099625,3388.722126 2214.723150,3343.772131 2338.177796,3231.924496 2468.290436,3130.398420 2576.516947,3116.054954 2620.745830,3021.450425 2644.739129,2963.489600 2679.551328,2943.392112 2717.793107,2937.312315 2739.498804,2815.843022 2706.774027,2782.218462 2767.734687,2682.190962 2780.500003,2578.719237 2764.698793,2493.206047 2692.390257,2436.467093 2727.507087,2322.442152 2794.188906,2223.779354 2803.142410,2185.292181 2795.684841,2146.687304 2778.820136,2110.366781 2780.407175,2071.411330 2816.940821,1978.360986 2830.180563,1912.939825 2849.700705,1873.791114"/>
    <poly id="203608623" type="waterway.stream" color="181,209,209" fill="0" layer="-4.00" shape="5906.956486,5384.738911 5475.414793,5141.552055 5410.433123,5072.838280 5326.906620,4984.508210 5237.440643,4889.888321 5177.267951,4826.251920 5143.022974,4790.047301 5025.320966,4566.615893 4960.840215,4436.370499 4959.523868,4433.706559 4984.473918,4289.035960 5013.696844,4123.084796 4988.352426,4056.679881 4935.230287,4024.544710 4903.600894,3967.812506 4931.772456,3875.261912 4942.942947,3797.612994 4936.062783,3763.126554 4849.017702,3751.955651 4827.109143,3705.001359 4789.287223,3643.814293 4799.970498,3508.763886 4794.594044,3461.696941 4783.867983,3425.083236 4791.210034,3327.638424 4776.883681,3294.818062 4751.960767,3268.931461 4685.401010,3208.242004 4655.583964,3160.030129 4634.073729,3095.564955 4611.504739,3075.823212 4576.034373,3056.007960 4544.314848,3039.436865 4529.338941,3030.587347 4520.272493,3015.934968 4528.775352,2964.777087 4548.532795,2923.063886 4554.513804,2862.983237 4517.932999,2797.346269 4517.215859,2714.906361 4527.029257,2655.636349 4529.727765,2604.241282"/>
    <poly id="203608717" type="waterway.stream" color="181,209,209" fill="0" layer="-4.00" shape="2642.430992,5281.739494 2684.967273,5250.396831 2711.124420,5214.278721 2764.943467,5087.287751 2791.862790,4979.504933 2832.509092,4894.314799 2879.573471,4904.744571 2996.749242,4870.226539 3076.296164,4892.330223 3209.154274,4929.253125 3317.918269,4875.364275 3376.145116,4869.084193 3434.489456,4846.497243 3490.799877,4773.779007 3507.854517,4732.103236 3514.979746,4720.875987 3534.289433,4690.488758 3616.049944,4629.907768 3611.370617,4571.350735 3611.600132,4521.178807 3602.555964,4454.627465 3549.580314,4386.649551 3520.699490,4360.804410 3477.615366,4353.519759 3437.535463,4314.789939 3397.485870,4271.402613 3331.624333,4159.064626 3290.196339,4077.200441 3313.754491,3923.504008 3282.199977,3779.449574 3268.206150,3715.587875 3204.294740,3679.513299 3175.884610,3594.725014 3106.428153,3570.618518 3060.509859,3535.004505 3059.666436,3422.770265 3077.202471,3370.941066 3003.219964,3323.173658 2998.851003,3243.554005 3032.091363,3152.529274 3047.887186,3008.606746 3126.133600,2880.236834 3148.815860,2820.597066 3183.051662,2786.677883 3152.131462,2670.751676 3173.371573,2560.586291 3175.865307,2447.953365 3101.446623,2345.905479 3087.614748,2309.018084 3087.899694,2265.230396 3075.551556,2225.476148 3049.030005,2199.625090 2974.722682,2171.084595 2975.860667,1996.088847 2935.253465,1960.510001 2896.281151,1945.907254 2864.157050,1915.616714 2849.700705,1873.791114"/>
    <poly id="203608722" type="waterway.stream" color="181,209,209" fill="0" layer="-4.00" shape="2849.700705,1873.791114 2849.520177,1825.851642 2835.338548,1787.169891 2824.197261,1756.794489 2776.194985,1688.032615 2720.746233,1602.450196 2645.037565,1488.015538 2610.108639,1391.082670 2584.093175,1349.414642 2570.511776,1327.675243 2544.970053,1292.183779 2443.351018,1266.344337 2421.590988,1263.116570 2391.867529,1253.652710 2379.105463,1233.688891 2347.025470,1177.842678 2316.422850,1098.153187 2297.542224,1062.262607 2285.336916,1025.530198 2281.949282,999.896268 2283.940796,965.899982 2299.742754,928.463877 2298.573863,926.608703 2279.070708,895.648447 2222.333804,870.111663 2175.496991,826.970675 2122.978365,769.664946 2037.676525,694.036395 1992.575704,588.641750 1956.455425,538.500929 1939.785030,503.952597 1950.647860,474.428020 1981.046391,447.242408 2021.793862,400.696257 2061.687190,349.287748 2099.044145,277.539253 2133.430533,252.592213 2159.704233,246.135120 2199.615337,259.647351 2231.153444,264.265732 2257.399053,260.463771 2276.606110,246.017454 2295.961830,208.604301 2293.493959,177.676938 2262.269722,126.228799 2245.519307,104.048762 2235.199123,83.448163 2230.237170,61.112075 2249.327050,30.988007 2275.478499,7.968139 2338.842015,-30.487860 2393.681563,-56.187419 2463.991956,-68.101176 2490.374629,-91.329624 2493.223298,-120.906037 2469.425720,-152.414102 2429.851473,-218.033467 2412.323970,-257.012987 2416.046248,-283.043421 2436.570526,-294.837009 2477.844834,-285.730057 2520.044396,-281.042457 2542.782647,-291.936568 2552.269273,-314.842954 2545.902517,-361.693866 2549.161805,-383.755507 2570.057793,-385.390328 2611.797186,-377.165292 2645.613331,-383.130701 2667.074924,-402.861698 2692.647265,-439.349390 2710.744185,-488.254525 2737.590936,-557.703208"/>
    <poly id="205659809" type="waterway.stream" color="181,209,209" fill="0" layer="-4.00" shape="7203.819723,3971.524815 7146.674847,3942.755597 7010.273706,3898.900553 6942.327506,3876.521340 6905.761093,3862.338431 6859.136044,3867.893072 6824.412375,3872.608376 6786.002430,3846.232155 6762.572703,3808.128072 6740.086205,3728.319787 6697.848331,3687.225646 6642.763543,3669.202990 6601.153818,3615.777058 6632.601122,3559.338736 6568.583881,3526.354200 6471.164158,3481.775232 6450.024594,3485.784283 6427.759201,3459.991176 6391.498337,3381.331373 6383.717424,3380.737790 6363.336287,3379.175786 6364.887452,3271.911812 6278.421407,3207.635103 6200.846137,3202.652739 6128.979875,3162.669382 6004.301590,3170.951662 5962.541412,3146.700932 5873.288444,3082.097318 5885.705616,3052.816085 5849.887673,3024.433715 5788.113349,3005.903987 5746.434299,3050.570054 5651.581307,2977.864805 5619.826724,3011.466303 5607.938605,3036.823461 5464.111304,3025.775102 5357.432981,2955.537632 5263.430983,2979.392136 5241.105501,3045.682764 5153.452227,3055.207548 5059.268552,2986.989425 4889.103258,2805.843719 4852.704650,2797.484059 4805.457451,2812.784806 4756.452652,2809.343306 4714.326113,2790.767661 4692.211714,2733.357136 4669.706540,2713.848153 4632.246969,2675.510379 4598.499313,2644.687086 4565.970785,2621.361918 4529.727765,2604.241282"/>
    <poly id="205659810" type="waterway.stream" color="181,209,209" fill="0" layer="-4.00" shape="4529.727765,2604.241282 4492.022197,2593.395258 4439.152266,2589.077071 4405.381796,2588.413347 4356.551100,2578.379723 4314.496744,2552.049554 4255.702701,2503.969448 4214.632014,2462.632540 4151.303963,2427.334686 4128.352383,2402.446334 4123.664359,2371.946476 4130.171349,2328.276676 4117.207272,2272.541916 4097.354165,2250.340202 4076.046568,2244.901434 4040.838007,2260.127156 4000.806315,2263.837363 3980.206097,2220.421918 3956.388714,2192.452398 3938.410616,2154.353596 3905.403002,2103.798605 3875.269189,2090.347618 3814.857273,2085.538798 3770.890055,2079.067247 3736.780419,2061.618621 3733.765209,2046.143108 3740.639289,2014.833750 3738.785713,1958.740314 3724.357128,1922.877582 3671.869351,1859.826753 3669.046489,1816.527595 3682.459151,1734.921565 3676.710210,1662.461843 3675.006170,1583.401421 3690.079507,1522.118955 3717.587525,1460.463977 3728.941052,1422.999278 3713.097531,1399.496468 3681.677963,1378.536300 3650.669817,1361.550678 3590.483933,1321.860534 3546.981269,1312.737246 3529.004881,1274.207393 3526.155764,1234.879958 3516.266320,1183.591194 3512.164322,1130.127425 3522.611896,1095.743520 3529.451275,1069.733362 3538.498711,1045.507759 3538.645439,1022.983283 3529.414327,1006.582257 3510.235719,1016.613696 3497.237638,1034.640102 3466.959395,1041.512536 3454.591408,1029.948015 3442.280895,1009.555150 3441.119476,983.050349 3451.509507,957.494780 3480.664328,916.616661 3471.119406,881.228539 3463.282514,855.565357 3425.758721,816.454767 3379.794327,775.530198 3363.104855,745.826568 3368.147485,722.017412 3383.436443,694.734594 3417.212937,671.223075 3441.415494,641.962591 3452.958239,598.911954 3462.163817,550.391767 3487.788318,505.961341 3487.078607,477.246770 3465.999189,438.243262 3449.303151,409.524226 3386.086738,413.460852 3348.264429,413.413941 3338.373070,399.287821 3344.134159,381.015111 3352.750510,355.813061 3338.344772,309.495827 3301.503225,239.323514 3257.012417,176.768585 3250.135415,139.627803 3259.297608,97.734388 3231.684005,57.914209 3091.491251,-9.499599 3012.727493,-78.350505 2934.328520,-205.149546 2890.118513,-299.398901 2868.148920,-415.464990 2838.302924,-453.484726 2810.778647,-470.136781 2737.590936,-557.703208"/>
    <poly id="242699976" type="leisure.pitch" color="207,245,201" fill="1" layer="-2.00" shape="5339.649253,2339.626510 5360.784155,2299.814503 5423.765942,2332.811332 5402.630897,2372.634373 5339.649253,2339.626510"/>
    <poly id="242699976#1" type="sport.basketball" color="79,230,125" fill="1" layer="-2.00" shape="5339.649253,2339.626510 5360.784155,2299.814503 5423.765942,2332.811332 5402.630897,2372.634373 5339.649253,2339.626510"/>
    <poly id="242699977" type="leisure.pitch" color="207,245,201" fill="1" layer="-2.00" shape="5294.771447,2378.563272 5276.131077,2369.921683 5288.883443,2342.810975 5307.587684,2351.718517 5294.771447,2378.563272"/>
    <poly id="242699977#1" type="sport.volleyball" color="79,230,125" fill="1" layer="-2.00" shape="5294.771447,2378.563272 5276.131077,2369.921683 5288.883443,2342.810975 5307.587684,2351.718517 5294.771447,2378.563272"/>
    <poly id="242699978" type="leisure.pitch" color="207,245,201" fill="1" layer="-2.00" shape="5327.406766,2393.946176 5294.771447,2378.563272 5307.587684,2351.718517 5340.222956,2367.112492 5327.406766,2393.946176"/>
    <poly id="242699978#1" type="sport.tennis" color="79,230,125" fill="1" layer="-2.00" shape="5327.406766,2393.946176 5294.771447,2378.563272 5307.587684,2351.718517 5340.222956,2367.112492 5327.406766,2393.946176"/>