<?xml version="1.0" encoding="UTF-8"?>

<!-- generated on 2026-03-02 21:43:12.989983 by Eclipse SUMO randomTrips.py v1_26_0+0000-fa7df22d7f1
<configuration>
    <net-file value="sumo_config\osm_network.net.xml"/>
    <route-file value="sumo_config\osm_routes.rou.xml"/>
    <end value="50.0"/>
    <period value="2.5"/>
</configuration>
-->

<!-- generated on 2026-03-02T21:43:12.890035+05:30 by Eclipse SUMO duarouter 1.26.0
<duarouterConfiguration xmlns:xsi="http://www.w3.org/2001/XMLSchema-instance" xsi:noNamespaceSchemaLocation="http://sumo.dlr.de/xsd/duarouterConfiguration.xsd">

    <input>
        <net-file value="sumo_config\osm_network.net.xml"/>
        <route-files value="trips.trips.xml"/>
    </input>

    <output>
        <output-file value="sumo_config\osm_routes.rou.xml"/>
        <alternatives-output value="NUL"/>
    </output>

    <time>
        <begin value="0.0"/>
        <end value="50.0"/>
    </time>

    <report>
        <no-warnings value="true"/>
        <ignore-errors value="true"/>
        <no-step-log value="true"/>
    </report>

</duarouterConfiguration>
-->

<routes xmlns:xsi="http://www.w3.org/2001/XMLSchema-instance" xsi:noNamespaceSchemaLocation="http://sumo.dlr.de/xsd/routes_file.xsd">
    <vehicle id="0" depart="0.00">
        <route edges="1305539703#2 1305539705#1 1305539705#2 1305539705#4 1305539705#5 -510070851#2 -510070851#1 -510070851#0 -66211507#10 -66211507#9 -66211507#7 -66211507#6 -238043246#37 -238043246#36 -238043246#34 -238043246#32 -238043246#31 -238043246#29 -238043246#28 -238043246#27 -238043246#26 -238043246#25 -238043246#24 -238043246#23 -238043246#21 -238043246#20 -238043246#19 -238043246#18 -238043246#17 -238043246#16 -238043246#14 -238043246#13 -238043246#12 -238043246#11 -238043246#10 -238043246#8 -238043246#7 -238043246#6 -238043246#5 -238043246#4 -238043246#3 -238043246#2 -238043246#1 -238043246#0 1000764288 1002932673#4 240738592#1 240738592#2 1123535867#1 1374092530 240738591#1 236378454#0 236378454#1 1476834527 240180812#1 1123532877#0 1064669231#3 1123532872#0 1123532872#1 1123532872#2 1123532872#3 1064669268#1 1064669268#2 1064669253#1 1064669253#2 1064669253#3 594822337#1 594822337#2 594822337#3 594822337#4 1451083668#0 1451083668#1 1451083668#2 554784528#0 554784528#1 554784528#2 554784528#3 977808694#1 977808694#2 977808694#4 554781549#1 554781549#2 554783612#5 554783612#6 554783612#7 554783612#8 -1066080815 -1066080812"/>
    </vehicle>
    <vehicle id="1" depart="2.50">
        <route edges="-1348207856#0 510070841#0 510070841#1 498355715#0 498355716 -66211507#20 -66211507#19 -66211507#17 -66211507#16 -66211507#15 -66211507#14 -66211507#13 -66211507#12 -66211507#10 -66211507#9 -66211507#7 -66211507#6 -238043246#37 -238043246#36 -238043246#34 -238043246#32 -238043246#31 -238043246#29 -238043246#28 -238043246#27 -238043246#26 -238043246#25 -238043246#24 -238043246#23 -238043246#21 -238043246#20 -238043246#19 -238043246#18 -238043246#17 1339367177#0 1339367177#1 1339367178#1 1339367179#0 1339367179#1 1339367180#1 -1339367182#0 -1339367181#0 131114370#6 131114370#7 131114370#8 131114370#9 131114370#10 131114370#11 131114370#12 1346407674#0 -1346407671#4 -1346407673"/>
    </vehicle>
    <vehicle id="2" depart="5.00">
        <route edges="1339371203#1 1339371203#2 -1339368650#1 -1339368650#0 66211507#2 66211507#3 66211507#4 -238043246#37 -238043246#36 -238043246#34 -238043246#32 -238043246#31 -238043246#29 -238043246#28 -238043246#27 -238043246#26 1339368565#0 -1339368564#5 -1339368564#4 -1339368564#3 -1339368564#2 -1339368564#1 1339368569#0 1339368569#1 1339368569#2"/>
    </vehicle>
    <vehicle id="3" depart="7.50">
        <route edges="510070849#1 -510070848#0 557578380#0 -557578378#12 -557578378#11 -557578378#10 -557578378#8 -557578378#7 -557578378#6 -557578378#5 -557578378#4 -557578378#3 -557578378#2 924161962#0 924161962#1 924161962#2 1120471078#0 -1120471079 -554779424#14 -924161747#3 -1120471076"/>
    </vehicle>
    <vehicle id="4" depart="10.00">
        <route edges="-573010069#0 207171700#7 207171700#8 207171700#9 207171700#10 207171700#11 207171700#12 207171700#13 207171700#15 207171700#16 207171700#17 207171700#18 207171700#19 207171700#20 207171700#21 207171700#22 207171700#24 1126873845#0 1126873845#1 1126873845#2 1126873845#3 -207305796#9 -207305796#8 -207305796#7 -207305796#6 -207305796#4 -207305796#3 -207305796#2 -1200729438 -1066092709"/>
    </vehicle>
    <vehicle id="5" depart="12.50">
        <route edges="-1339368599#2 -1339368600 -1339368598#0 -557578378#7 -557578378#6 -557578378#5 -557578378#4 1339368561#0 1339368561#1 1339368561#2 1339368561#3 1339368561#4 1339368561#5 1339368561#6 1339368561#7 557578380#9 557578380#10 557578380#11 557578380#13 557578380#14 557578380#15 557578380#16 557578380#17 -238043246#12 -238043246#11 -238043246#10 -238043246#8 -238043246#7 -238043246#6 -238043246#5 -238043246#4 -238043246#3 -238043246#2 -238043246#1 -238043246#0 1000764288 1002932673#4 240738592#1 240738592#2 1123535867#1 1374092530 240738591#1 236378454#0 236378454#1 1476834527 240180812#1 1123532877#0 1064669231#3 1123532872#0 1123532872#1 1123532872#2 1123532872#3 1064669268#1 1064669268#2 207171700#1 207171700#2 207171700#4 207171700#5 207171700#6 207171700#7 207171700#8 207171700#9 207171700#10 207171700#11 207171700#12 207171700#13 207171700#15 207171700#16 207171700#17 207171700#18 207171700#19 207171700#20 207171700#21 207171700#22 207171700#24 207171700#25 207171700#26 207171700#27 207171700#29 -814665314#11 -1066097025 1066097023 592528907#1 -592528909#0 1066097022#0 1066097022#1 1066097022#2"/>
    </vehicle>
    <vehicle id="6" depart="15.00">
        <route edges="-1002473259 1002473256#2 1002473258#0 1002473258#1 554779424#20 1001611579#1 1001611579#2 1001611579#3 1001611579#4 -1339368536#0 557578380#17 238043246#13 238043246#14 238043246#16 238043246#17 238043246#18 238043246#19 238043246#20 238043246#21 238043246#23 238043246#24 238043246#25 238043246#26 238043246#27 238043246#28 238043246#29 238043246#31 238043246#32 238043246#34 238043246#36 238043246#37 66211507#6 66211507#7 66211507#9 -1339368640#1"/>
    </vehicle>
    <vehicle id="7" depart="17.50">
        <route edges="131252329#15 131252329#16 131252329#17 1001036367#0 -1001036368#1 -1001036368#0 -131252329#16 -131252329#15 -131252329#13 -131252329#12 -131252329#11 -131252329#10 -131252329#9 -131252329#8 -131252329#7 -131252329#6 -131252329#5 -131252329#4 -131252329#3 -131252329#2 -131252329#1 -131252329#0 1064669255#0 1064669255#1 1123532871#1 1123532871#2 1123532871#3 1123532871#4 1123532871#5 1123532881#1 1123532877#0 1064669231#3 1123532872#0 1123532872#1 1123532872#2 1123532872#3 1064669268#1 1064669268#2 1064669253#1 -1239072566#1 -1239072566#0 592528934 1066109713#2 -1066109720#0 1066109723"/>
    </vehicle>
    <vehicle id="8" depart="20.00">
        <route edges="-1339368604#0 -557578378#5 -557578378#4 1339368561#0 1339368561#1 1339368561#2 1339368561#3 1339368561#4 1339368561#5 1339368561#6 1339368561#7 557578380#9 557578380#10 557578380#11 557578380#13 557578380#14 557578380#15 557578380#16 557578380#17 -238043246#12 -238043246#11 -238043246#10 -238043246#8 -238043246#7 -238043246#6 -238043246#5 -238043246#4 -238043246#3 -238043246#2 -238043246#1 -238043246#0 1000764288 1002932673#4 240738592#1 240738592#2 1190181264"/>
    </vehicle>
    <vehicle id="9" depart="22.50">
        <route edges="207305848#4 207305793#5 207305793#6 592527374 814665314#8 814665314#9 814665314#10 814665314#11 -207171700#29 -207171700#27 -207171700#26 -207171700#25 -207171700#24 -207171700#22 -207171700#21 -207171700#20 -207171700#19 -207171700#18 -207171700#17 -207171700#16 -207171700#15 -207171700#13 -207171700#12 -207171700#11 -207171700#10 -207171700#9 -207171700#8 -207171700#7 -207171700#6 -207171700#5 -207171700#4 -207171700#2 -207171700#1 -207171700#0 1064669270#4 1064669255#0 1064669255#1 1123532871#1 1123532871#2 1123532871#3 1123532871#4 1123532871#5 1123532881#1 1123532874#0 1123532874#1 62288201#0 62288201#1 557578378#0 -1095117460#1 -1095117460#0 1095117461#0 1095117461#1 1095117461#2 1095117462#1 557578378#5 -1000757638#6"/>
    </vehicle>
    <vehicle id="10" depart="25.00">
        <route edges="207305844#1 207305844#2 325260987#1 -207305798#2 -207305798#1 -207305798#0 -207305822#0 207305796#4 207305796#5 207305796#7 207305796#8 207305796#9 -1126873845#3 -1126873845#2 -1126873845#1 -1126873845#0 -207171700#24 -207171700#22 -207171700#21 -207171700#20 -207171700#19 -207171700#18 -207171700#17 -207171700#16 -207171700#15 -207171700#13 -207171700#12 -207171700#11 -207171700#10 -207171700#9 -207171700#8 -207171700#7 -207171700#6 -207171700#5 -207171700#4 -207171700#2 -207171700#1 -207171700#0 1064669270#4 1064669255#0 1064669255#1 1123532871#1 1123532871#2 1123532871#3 1123532871#4 1123532871#5 1123532881#1 1123532874#0 1123532874#1 62288201#0 62288201#1 62288201#2 62288201#3 924162708#0 924162708#1 924162708#2 924162708#3 1085586812#0 1339368605#0 1339368605#1 498355710#7 498355710#8 498355710#9 498355710#10 -1339368614#2 -1339368614#1 1339368613#2 -498355703#5 1339368613#0"/>
    </vehicle>
    <vehicle id="11" depart="27.50">
        <route edges="-242699985#0 240737143#2 240737143#3 240737156 240737153 1202923333 1476834524 240737146#1 240737146#3 1123532874#0 1064669232#0 1064669232#1 1064669232#2 1064669232#3 924161747#0 924161747#1 924161747#2 924161747#3 554779424#14 1120471079 -1120471078#0 -1001611577#10 -1001611577#9 -1001611577#8 -1001611577#7 -1001611577#5 -1001611577#4 -1001611577#2 -1001611577#1 557578380#16 557578380#17 238043246#13 238043246#14 1339368532#0 1339368532#1 1339368534 -1339368531#1"/>
    </vehicle>
    <vehicle id="12" depart="30.00">
        <route edges="66211507#0 66211507#1 66211507#2 66211507#3 66211507#4 66211507#6 66211507#7 66211507#9 66211507#10 66211507#12 66211507#13 66211507#14 66211507#15 66211507#16 66211507#17 66211507#19 66211507#20 66211507#21 -498355713#2 -498355713#1 -498355713#0 -498355711#1 -498355711#0 498355703#5 -1339368613#2 1339368614#1 1339368614#2 498355710#11 -498355709#1"/>
    </vehicle>
    <vehicle id="13" depart="32.50">
        <route edges="-1095117462#0 -1095117461#1 -1095117461#0 1095117463#0 1095117463#1 1085586808#3 1085586808#4 1085586808#7 1085586808#8 1095117462#1 -557578378#4 1339368561#0 1339368561#1 1339368561#2 1339368561#3 1339368561#4 1339368561#5 1339368561#6 1339368561#7 557578380#9 557578380#10 557578380#11 557578380#13 557578380#14 557578380#15 557578380#16 557578380#17 -238043246#12 -238043246#11 -238043246#10 -238043246#8 -238043246#7 -238043246#6 -238043246#5 -238043246#4 -1141931746#1 -1141931746#0 640186872#2 -1141931747"/>
    </vehicle>
    <vehicle id="14" depart="35.00">
        <route edges="325260989#3 -207305798#8 -207305798#6 -207305798#5 -207305798#4 -207305798#3 -207305798#2 -207305798#1 -207305798#0 -207305822#0 207305796#4 207305796#5 207305796#7 207305796#8 207305796#9 -1126873845#3 -1126873845#2 -1126873845#1 -1126873845#0 -207171700#24 -207171700#22 -207171700#21 -207171700#20 -207171700#19 -207171700#18 -207171700#17 -207171700#16 -207171700#15 -207171700#13 -207171700#12 -207171700#11 -207171700#10 -207171700#9 -207171700#8 -207171700#7 -207171700#6 -207171700#5 -207171700#4 -207171700#2 -207171700#1 -207171700#0 1064669270#4 1064669255#0 1064669255#1 1123532871#1 1123532871#2 1123532871#3 1123532871#4 1123532871#5 1123532881#1 1123532874#0 1123532874#1 62288201#0 62288201#1 62288201#2 62288201#3 924162708#0 924162708#1 924162708#2 924162708#3 1085586812#0 1085586812#2 -1000757637#1 -1000757637#0 -498355710#3 -498355710#2 -498355710#0 510070844#0 510070847#0 510070847#1 510070848#0 -510070849#1 -510070849#0 -66211507#14 -66211507#13 -66211507#12 510070851#0 510070851#1 510070851#2 -1305539705#5 1305539708#0 1305539709"/>
    </vehicle>
    <vehicle id="15" depart="37.50">
        <route edges="207305844#5 -207305805#1 -207305805#0 -207305798#5 -207305798#4 -207305798#3 -207305798#2 -207305798#1 -207305798#0 -207305822#0 207305796#4 207305796#5 207305796#7 207305796#8 207305796#9 -1126873845#3 -1126873845#2 -1126873845#1 -1126873845#0 -207171700#24 -207171700#22 -207171700#21 -207171700#20 -207171700#19 -207171700#18 -207171700#17 -207171700#16 -207171700#15 -207171700#13 -207171700#12 -207171700#11 -207171700#10 -207171700#9 -207171700#8 -207171700#7 -207171700#6 -207171700#5 -207171700#4 -207171700#2 -207171700#1 -207171700#0 1064669270#4 1064669255#0 1064669255#1 1123532871#1 1123532871#2 1123532871#3 1123532871#4 1064669236 1123532873#1 -236378454#1 -236378454#0 240738595 -1123535867#1 -1123535867#0 -240738592#1 -1002932673#4 -1000764288 1123535865#1 640186872#0 640186872#1 640186872#2 640186872#3 640186872#5 640186872#6 -1346407677#5 -1346407677#4 -1346407676#5 -1346407676#4 -1346407676#3 -1346407676#2 -1346407676#1 -1346407674#1 -1346407674#0 131114370#13 131114370#14 131114370#15 1346407670#0 1346407672#0"/>
    </vehicle>
    <vehicle id="16" depart="40.00">
        <route edges="1064669230#1 1064669230#2 1064669230#3 1064669231#0 1064669231#1 1064669231#2 1064669231#3 240737146#3 1123532874#0 1123532874#1 62288201#0 62288201#1 62288201#2 62288201#3 924162708#0 924162708#1 924162708#2"/>
    </vehicle>
    <vehicle id="17" depart="42.50">
        <route edges="-498355708#1 498355709#0 1136595703#1 -498355703#5 498355711#0 498355711#1 498355713#0 498355713#1 498355713#2 -66211507#21 -66211507#20 -66211507#19 -66211507#17 -66211507#16 -66211507#15 -66211507#14 -66211507#13 -66211507#12 -66211507#10 -66211507#9 -66211507#7 -66211507#6 -238043246#37 -238043246#36 -238043246#34 -238043246#32 -238043246#31 -238043246#29 -238043246#28 -238043246#27 -238043246#26 -238043246#25 -238043246#24 -238043246#23 -238043246#21 -238043246#20 -238043246#19 -238043246#18 -238043246#17 -238043246#16 -238043246#14 -238043246#13 -238043246#12 -238043246#11 -238043246#10 -238043246#8 -238043246#7 -238043246#6 -238043246#5 -238043246#4 -238043246#3 -238043246#2 -238043246#1 -238043246#0 1000764288 1002932673#4 240738592#1 240738592#2 1123535867#1 1374092530 240738591#1 236378454#0 236378454#1 1476834527 240180812#1 1123532877#0 1064669231#3 1123532872#0 1123532872#1 1123532872#2 1123532872#3 1064669268#1 1064669268#2 207171700#1 207171700#2 207171700#4 207171700#5 207171700#6 207171700#7 207171700#8 207171700#9 207171700#10 207171700#11 207171700#12 207171700#13 207171700#15 207171700#16 207171700#17 207171700#18 592528917#0 592528917#1 592528917#2 592528917#3 592528917#4 -1066109745 1066110584#1"/>
    </vehicle>
    <vehicle id="18" depart="45.00">
        <route edges="240737150 240737157#1 240737143#1 242699985#0 242699985#1 242699985#2 242699985#3 907630217#0 907630217#1 1066101221 -592528913#1 -1066101220 -592528911#0 207305854#3 207305854#5 207305863#0 207305863#1 207305863#2 207305863#4 1066101225#0 1329807706#0 1329807708"/>
    </vehicle>
    <vehicle id="19" depart="47.50">
        <route edges="497321502#3 -1152308065 1152308064#1 236378454#1 1476834527 240180812#1 1123532877#0 1064669231#3 1123532872#0 1123532872#1 1123532872#2 1123532872#3 1064669268#1 1064669268#2 207171700#1 207171700#2 207171700#4 207171700#5 207171700#6 207171700#7 207171700#8 207171700#9 207171700#10 207171700#11 207171700#12 207171700#13 207171700#15 207171700#16 207171700#17 207171700#18 207171700#19 207171700#20 207171700#21 207171700#22 207171700#24 207171700#25 207171700#26 207171700#27 207171700#29 -814665314#11 -814665314#10 207305854#0 207305854#1 207305854#2 592527371#1 592527371#2 1066101228#0 1126873799"/>
    </vehicle>
</routes>
