<additional>
    <vType id="ev" accel="2.6" decel="4.5" sigma="0.5" length="5" minGap="2.5" maxSpeed="15" color="0,128,255" guiShape="passenger/sedan"/>
</additional>
