<?xml version="1.0" encoding="UTF-8"?>

<!-- generated on 2026-03-05 15:26:00.088180 by Eclipse SUMO randomTrips.py v1_26_0+0000-fa7df22d7f1
<configuration>
    <net-file value="sumo_config\city.net.xml"/>
    <output-trip-file value="sumo_config\trips.trips.xml"/>
    <route-file value="sumo_config\routes.rou.xml"/>
    <end value="1000.0"/>
    <period value="2.0"/>
</configuration>
-->

<!-- generated on 2026-03-05T15:25:59.504076+05:30 by Eclipse SUMO duarouter 1.26.0
<duarouterConfiguration xmlns:xsi="http://www.w3.org/2001/XMLSchema-instance" xsi:noNamespaceSchemaLocation="http://sumo.dlr.de/xsd/duarouterConfiguration.xsd">

    <input>
        <net-file value="sumo_config\city.net.xml"/>
        <route-files value="sumo_config\trips.trips.xml"/>
    </input>

    <output>
        <output-file value="sumo_config\routes.rou.xml"/>
        <alternatives-output value="NUL"/>
    </output>

    <time>
        <begin value="0"/>
        <end value="1000.0"/>
    </time>

    <report>
        <no-warnings value="true"/>
        <ignore-errors value="true"/>
        <no-step-log value="true"/>
    </report>

</duarouterConfiguration>
-->

<routes xmlns:xsi="http://www.w3.org/2001/XMLSchema-instance" xsi:noNamespaceSchemaLocation="http://sumo.dlr.de/xsd/routes_file.xsd">
    <vType id="car" accel="2.6" decel="4.5" sigma="0.5" length="5" minGap="2.5" maxSpeed="13.9" guiShape="passenger"/>
    <vehicle id="0" type="car" depart="0.00">
        <route edges="1231015492 1231015493 -1231015493 -1231015492 -497316920#1 -497316920#0 1064669255#1 1064669256 1123532871#0 1123532871#1 1123532871#2 1123532871#3 1123532871#4 1123532871#5 1123532881#1 1064669252 1123532875 1123532877#0 1064669231#3 1123532872#0 1123532872#1 1123532872#2 1123532872#3 1064669254 1064669268#0 1064669268#1 1064669268#2 1064669269 1064669253#0 1064669253#1 1064669253#2 1064669253#3 594822337#1 594822337#2 594822337#3 594822337#4 1451083668#0 1451083668#1 1451083668#2 554784528#0 554784528#1 554784528#2 554784528#3 977808694#0 977808694#1 977808694#2 977808694#3 977808694#4 554781549#1 554781549#2 554783612#5 -1216734956 1066080812 -1066080812"/>
    </vehicle>
    <vehicle id="1" type="car" depart="2.00">
        <route edges="-1451083336#3 -1451083336#2 1451083336#2 1451083336#3 1095921915#1 -1451083668#2 -1134741106 -1066109713#6 -1066109713#5 -1066109713#4 -1066109713#3 -1066109713#2 -592528934 -592528928#5 -592528928#4 -592528928#3 -592528928#2 -592528928#1 -592528928#0 -207171700#2 -207171700#1 -207171700#0 1064669270#4 1064669271 1202923334 1064669255#0 1064669255#1 1064669256 1123532871#0 1123532871#1 1123532871#2 1123532871#3 1123532871#4 1064669236 1123532873#1 1476834526 -236378454#1 -236378454#0 240738595 1374092531 -1123535867#1 -1123535867#0 -1123535868 -240738592#2 -240738592#1 -1002932673#4 -1000764288 1123535865#1 1123535866 238043246#0 640186872#0 640186872#1 640186872#2 640186872#3 640186872#4 640186872#5 640186872#6 -1346407677#5 -1346407677#4 -1346407676#5 -1346407676#4"/>
    </vehicle>
    <vehicle id="2" type="car" depart="4.00">
        <route edges="1339371206#0 -1339371207 1339368651#2 1339368651#3 -1339368649#3 -1339368649#2 -1339368649#1 -1339368649#0 66211507#3 66211507#4 66211507#5 -238043246#37 -238043246#36 -238043246#35 -238043246#34 -238043246#33 -238043246#32 -238043246#31 -238043246#30 -238043246#29 -238043246#28 -238043246#27 -238043246#26 1339368565#0 -1339368564#5 -1339368564#4 1339368564#4"/>
    </vehicle>
    <vehicle id="3" type="car" depart="6.00">
        <route edges="510070848#5 66211507#13 66211507#14 66211507#15 -510070847#4 -510070847#3 -510070847#2 557578380#0 -557578378#12 -557578378#11 -557578378#10 -557578378#9 -557578378#8 -557578378#7 -557578378#6 -557578378#5 -557578378#4 -557578378#3 -557578378#2 924161962#0 -1120471073#2 -1120471073#1"/>
    </vehicle>
    <vehicle id="4" type="car" depart="8.00">
        <route edges="-573010073#2 573010073#2 573010073#3 207171700#14 207171700#15 207171700#16 207171700#17 207171700#18 207171700#19 207171700#20 207171700#21 207171700#22 207171700#23 207171700#24 1126873845#0 1126873845#1 1126873845#2 1126873845#3 814665314#13 -207305796#9 -207305796#8 -207305796#7 -207305796#6 -207305796#5 -207305796#4 -207305796#3 -207305796#2 -1200729438 -1066092709"/>
    </vehicle>
    <vehicle id="5" type="car" depart="10.00">
        <route edges="-1339368604#2 -1085586809#1 -1085586809#0 1000757638#5 1000757638#6 1000757638#7 -557578378#5 -557578378#4 1339368561#0 1339368561#1 1339368561#2 1339368561#3 1339368561#4 1339368561#5 1339368561#6 1339368561#7 557578380#9 557578380#10 557578380#11 557578380#12 557578380#13 557578380#14 557578380#15 557578380#16 557578380#17 -238043246#12 -238043246#11 -238043246#10 -238043246#9 -238043246#8 -238043246#7 -238043246#6 -238043246#5 -238043246#4 -238043246#3 -238043246#2 -238043246#1 -238043246#0 -1123535866 -1123535865#1 1000764288 1002932673#4 240738592#1 240738592#2 1123535868 1123535867#0 1123535867#1 1374092530 240738591#0 240738591#1 236378454#0 236378454#1 1476834527 240180812#0 240180812#1 240180812#2 1123532875 1123532877#0 1064669231#3 1123532872#0 1123532872#1 1123532872#2 1123532872#3 1064669254 1064669268#0 1064669268#1 1064669268#2 1064669269 1064669253#0 1064669253#1 1064669253#2 1064669253#3 594822337#1 594822337#2 594822337#3 594822337#4 1451083668#0 1451083668#1 1451083668#2 554784528#0 554784528#1 554784528#2 554784528#3 977808694#0 977808694#1 977808694#2 977808694#3 977808694#4 554781549#1 554781549#2 554783612#5 -1216734956 1066080812 1066080816#0 1066080818"/>
    </vehicle>
    <vehicle id="6" type="car" depart="12.00">
        <route edges="-1002489702#0 -1002489701#0 -814665314#15 -814665314#14 -814665314#13 -1126873845#3 -1126873845#2 -1126873845#1 -1126873845#0 -207171700#24 -207171700#23 -207171700#22 -207171700#21 -207171700#20 -207171700#19 -207171700#18 -207171700#17 -207171700#16 -207171700#15 -207171700#14 -207171700#13 -207171700#12 -207171700#11 -207171700#10 -207171700#9 -207171700#8 -207171700#7 -207171700#6 -207171700#5 -207171700#4 -207171700#3 -207171700#2 -207171700#1 -207171700#0 1064669270#4 1064669271 1202923334 1064669255#0 1064669255#1 1064669256 1123532871#0 1123532871#1 1123532871#2 1123532871#3 1123532871#4 1123532871#5 1123532881#1 1064669252 1123532874#0 1123532874#1 62288201#0 62288201#1 62288201#2 62288201#3 924162708#0 924162708#1 924162708#2 924162708#3 924162708#4 1000757638#0 1000757638#1 1000757638#2 -1000757637#3 -1000757637#2 -1000757637#1 -1000757637#0 -498355710#3 -498355710#2 -498355710#1 -498355710#0 510070844#0 510070847#0 510070847#1 510070847#2 510070847#3 510070847#4 -66211507#15 -66211507#14 -66211507#13 -66211507#12 -66211507#11 -66211507#10 -66211507#9 -66211507#8 -1339368644#1 -1339368644#0"/>
    </vehicle>
    <vehicle id="7" type="car" depart="14.00">
        <route edges="131114370#4 131114370#5 131114370#6 131114370#7 131114370#8 131114370#9 131114370#10 1346407677#0 1346407677#1 1346407677#2 1346407677#3 1346407677#4 1346407677#5 -640186872#6 -640186872#5 -640186872#4 -640186872#3 -640186872#2 -640186872#1 -640186872#0 -238043246#0 -1123535866 -1123535865#1 1000764288 1002932673#4 240738592#1 240738592#2 1123535868 1123535867#0 1123535867#1 1374092530 240738591#0 240738591#1 236378454#0 236378454#1 1476834527 240180812#0 240180812#1 240180812#2 1123532875 1123532877#0 1064669231#3 1123532872#0 1123532872#1 1123532872#2 1123532872#3 1064669254 1064669268#0 1064669268#1 1064669268#2 1064669269 1064669253#0 1064669253#1 -1239072566#1 -1239072566#0 592528934 1066109713#2"/>
    </vehicle>
    <vehicle id="8" type="car" depart="16.00">
        <route edges="-1339368609#1 -1339368610#0 -498355712#1 -498355712#0 510070841#0 510070841#1 498355715#0 498355716 -66211507#20 -66211507#19 -66211507#18 -66211507#17 -66211507#16 -66211507#15 -66211507#14 -66211507#13 -66211507#12 -66211507#11 -66211507#10 -66211507#9 -66211507#8 -66211507#7 -66211507#6 -238043246#37 -238043246#36 -238043246#35 -238043246#34 -238043246#33 -238043246#32 -238043246#31 -238043246#30 -238043246#29 -238043246#28 -238043246#27 -238043246#26 -238043246#25 -238043246#24 -238043246#23 -238043246#22 -238043246#21 -238043246#20 -238043246#19 -238043246#18 -238043246#17 -238043246#16 -238043246#15 -238043246#14 -238043246#13 -238043246#12 -238043246#11 -238043246#10 -238043246#9 -238043246#8 -238043246#7 -238043246#6 -238043246#5 -238043246#4 -1141931746#1 1141931747"/>
    </vehicle>
    <vehicle id="9" type="car" depart="18.00">
        <route edges="207305854#0 -207305854#0 814665314#10 814665314#11 -207171700#29 -207171700#28 -207171700#27 -207171700#26 -207171700#25 -207171700#24 -207171700#23 -207171700#22 -207171700#21 -207171700#20 -207171700#19 -207171700#18 -207171700#17 -207171700#16 -207171700#15 -207171700#14 -207171700#13 -207171700#12 -207171700#11 -207171700#10 -207171700#9 -207171700#8 -207171700#7 -207171700#6 -207171700#5 -207171700#4 -207171700#3 -207171700#2 -207171700#1 -207171700#0 1064669270#4 1064669271 1202923334 1064669255#0 1064669255#1 1064669256 1123532871#0 1123532871#1 1123532871#2 1123532871#3 1123532871#4 1123532871#5 1123532881#1 1064669252 1123532874#0 1123532874#1 62288201#0 62288201#1 557578378#0 -1095117460#1 -1095117460#0 1095117461#0 1095117461#1 1095117461#2 1095117462#0 1095117462#1 557578378#5 -1000757638#7 -1000757638#6 -1000757638#5"/>
    </vehicle>
    <vehicle id="10" type="car" depart="20.00">
        <route edges="207305848#1 -207305848#1 -1066101237 -592527375 814665314#9 814665314#10 814665314#11 -207171700#29 -207171700#28 -207171700#27 -207171700#26 -207171700#25 -207171700#24 -207171700#23 -207171700#22 -207171700#21 -207171700#20 -207171700#19 -207171700#18 -207171700#17 -207171700#16 -207171700#15 -207171700#14 -207171700#13 -207171700#12 -207171700#11 -207171700#10 -207171700#9 -207171700#8 -207171700#7 -207171700#6 -207171700#5 -207171700#4 -207171700#3 -207171700#2 -207171700#1 -207171700#0 1064669270#4 1064669271 1202923334 1064669255#0 1064669255#1 1064669256 1123532871#0 1123532871#1 1123532871#2 1123532871#3 1123532871#4 1123532871#5 1123532881#1 1064669252 1123532874#0 1123532874#1 62288201#0 62288201#1 62288201#2 62288201#3 924162708#0 924162708#1 924162708#2 924162708#3 924162708#4 1085586812#0 1339368605#0 1339368605#1 498355710#6 1339368607"/>
    </vehicle>
    <vehicle id="11" type="car" depart="22.00">
        <route edges="-242699985#9 985677745#0 985677745#1 985677745#2 -985677641#3 -985677641#2 -985677641#1 -985677641#0 -985677218#2 1084972222 240737156 240737153 1202923333 1476834524 240737146#0 240737146#1 240737146#2 240737146#3 1123532878 1123532873#0 1123532873#1 1476834526 -236378454#1 -236378454#0 240738595 1374092531 -1123535867#1 -1123535867#0 -1123535868 -240738592#2 -240738592#1 -1002932673#4 -1000764288 1123535865#1 1123535866 238043246#0 640186872#0 640186872#1 640186872#2 640186872#3 640186872#4 640186872#5 640186872#6 -1346407677#5 -1346407677#4 -1346407677#3 -1346407677#2 -1346407677#1 -1346407677#0 -131114370#10 -131114370#9 -131114370#8 -131114370#7 -131114370#6 -131114370#5 -131114370#4 -131114370#3 -131114370#2 1199454017#0 1199454017#1 1339367169 1199454019#1 1339367189#0 1339367190#0 1339367190#1 1339367190#2 1339367190#3 -1339367190#3 -1339367190#2"/>
    </vehicle>
    <vehicle id="12" type="car" depart="24.00">
        <route edges="651786334#0 -651786334#0 -1316877783 -814665314#24 -814665314#23 -814665314#22 -814665314#21 -814665314#20 592528922#0 592528922#1 592528922#2 -573010073#0 -573010074#3 -573010074#2 -573010074#1 -573010074#0 -207171700#9 -207171700#8 -207171700#7 -207171700#6 -207171700#5 -207171700#4 -207171700#3 -207171700#2 -207171700#1 -207171700#0 1064669270#4 1064669271 1202923334 1064669255#0 1064669255#1 1064669256 1123532871#0 1123532871#1 1123532871#2 1123532871#3 1123532871#4 1123532871#5 1123532881#1 1064669252 1123532874#0 1123532874#1 62288201#0 62288201#1 62288201#2 62288201#3 924162708#0 924162708#1 924162708#2 924162708#3 924162708#4 1085586812#0 1339368605#0 1339368605#1 498355710#6 498355710#7 498355710#8 498355710#9 498355710#10 498355710#11 -498355709#1 -498355709#0"/>
    </vehicle>
    <vehicle id="13" type="car" depart="26.00">
        <route edges="-1095117461#0 1095117461#0 1095117461#1 1095117461#2 1095117462#0 1095117462#1 -557578378#4 1339368561#0 1339368561#1 1339368561#2 1339368561#3 1339368561#4 1339368561#5 1339368561#6 1339368561#7 557578380#9 557578380#10 557578380#11 557578380#12 557578380#13 557578380#14 557578380#15 557578380#16 557578380#17 -238043246#12 -238043246#11 -238043246#10 -238043246#9 -238043246#8 -238043246#7 -238043246#6 -238043246#5 -238043246#4 -238043246#3 -238043246#2 -238043246#1 -238043246#0 -1123535866 -1123535865#1 1000764288 1002932673#4 240738592#1 240738592#2 1123535868 1123535867#0 1123535867#1 1374092530 240738591#0 240738591#1 236378454#0 236378454#1 1476834527 240180812#0 240180812#1 240180812#2 1123532875 1123532877#0 1064669231#3 1123532872#0 1123532872#1 1123532872#2 1123532872#3 1064669254 1064669268#0 1064669268#1 1064669268#2 1064669269 1064669253#0 207171700#1 207171700#2 207171700#3 207171700#4 207171700#5 207171700#6 207171700#7 207171700#8 207171700#9 207171700#10 207171700#11 207171700#12 207171700#13 207171700#14 207171700#15 207171700#16 207171700#17 207171700#18 207171700#19 207171700#20 207171700#21 207171700#22 207171700#23 207171700#24 1126873845#0 1126873845#1 1126873845#2 -1126873849#1 -1126873850"/>
    </vehicle>
    <vehicle id="14" type="car" depart="28.00">
        <route edges="325260989#2 325260989#3 -207305798#8 -207305798#7 -207305798#6 -207305798#5 -207305798#4 -207305798#3 -207305798#2 -207305798#1 -207305798#0 -207305822#0 207305796#4 207305796#5 207305796#6 207305796#7 207305796#8 207305796#9 -814665314#13 -1126873845#3 -1126873845#2 -1126873845#1 -1126873845#0 -207171700#24 -207171700#23 -207171700#22 -207171700#21 -207171700#20 -207171700#19 -207171700#18 -207171700#17 -207171700#16 -207171700#15 -207171700#14 -207171700#13 -207171700#12 -207171700#11 -207171700#10 -207171700#9 -207171700#8 -207171700#7 -207171700#6 -207171700#5 -207171700#4 -207171700#3 -207171700#2 -207171700#1 1064669253#1 1064669253#2 1064669253#3 594822337#1 594822337#2 594822337#3 594822337#4 594822337#5 594822337#6 594822329#0 594822329#1 594822329#2 1064669270#0 1064669270#1 1231027101"/>
    </vehicle>
    <vehicle id="15" type="car" depart="30.00">
        <route edges="207305852 -207305794#2 -207305794#1 -207305794#0 814665314#2 814665314#3 814665314#4 814665314#5 814665314#6 814665314#7 814665314#8 814665314#9 814665314#10 814665314#11 -207171700#29 -207171700#28 -207171700#27 -207171700#26 -207171700#25 -207171700#24 -207171700#23 -207171700#22 -207171700#21 -207171700#20 -207171700#19 -207171700#18 -207171700#17 -207171700#16 -207171700#15 -207171700#14 -207171700#13 -207171700#12 -207171700#11 -207171700#10 -207171700#9 -207171700#8 -207171700#7 -207171700#6 -207171700#5 -207171700#4 -207171700#3 -207171700#2 -207171700#1 -207171700#0 1064669270#4 1064669271 1202923334 1064669255#0 1064669255#1 1064669256 1123532871#0 1123532871#1 1123532871#2 1123532871#3 1123532871#4 1064669236 1123532873#1 1476834526 -236378454#1 -236378454#0 240738595 1374092531 -1123535867#1 -1123535867#0 -1123535868 -240738592#2 -240738592#1 -1002932673#4 -1000764288 1123535865#1 1123535866 238043246#0 640186872#0 640186872#1 640186872#2 640186872#3 640186872#4 640186872#5 640186872#6 -1346407677#5 -1346407677#4 -1346407676#5 -1346407676#4 -1346407676#3 -1346407676#2 -1346407676#1 -1346407676#0 -1346407675#0 1346407671#3"/>
    </vehicle>
    <vehicle id="16" type="car" depart="32.00">
        <route edges="1064669232#1 1064669232#2 1064669232#3 924161747#0 924161747#1 924161747#2 -1120471076 1120471075 -1120471073#3 924161962#1"/>
    </vehicle>
    <vehicle id="17" type="car" depart="34.00">
        <route edges="-498355710#4 -498355710#3 -498355710#2 -498355710#1 -498355710#0 510070844#0 510070847#0 510070847#1 510070847#2 510070847#3 510070847#4 -66211507#15 -66211507#14 -66211507#13 -66211507#12 -66211507#11 -66211507#10 -66211507#9 -66211507#8 -66211507#7 -66211507#6 -238043246#37 -238043246#36 -238043246#35 -238043246#34 -238043246#33 -238043246#32 -238043246#31 -238043246#30 -238043246#29 -238043246#28 -238043246#27 -238043246#26 -238043246#25 -238043246#24 -238043246#23 -238043246#22 -238043246#21 -238043246#20 -238043246#19 -238043246#18 -238043246#17 -238043246#16 -238043246#15 -238043246#14 -238043246#13 -238043246#12 -238043246#11 -238043246#10 -238043246#9 -238043246#8 -238043246#7 -238043246#6 -238043246#5 -238043246#4 -238043246#3 -238043246#2 -238043246#1 -238043246#0 -1123535866 -1123535865#1 1000764288 1002932673#4 240738592#1 240738592#2 1123535868 1123535867#0 1123535867#1 1374092530 240738591#0 240738591#1 236378454#0 236378454#1 1476834527 240180812#0 240180812#1 240180812#2 1123532875 1123532877#0 1064669231#3 1123532872#0 1123532872#1 1123532872#2 1123532872#3 1064669254 1064669268#0 1064669268#1 1064669268#2 1064669269 1064669253#0 207171700#1 207171700#2 207171700#3 207171700#4 207171700#5 207171700#6 207171700#7 207171700#8 207171700#9 207171700#10 207171700#11 207171700#12 207171700#13 207171700#14 207171700#15 207171700#16 207171700#17 207171700#18 207171700#19 207171700#20 207171700#21 -1066109740#4 -1066109740#3 -1066109740#2 -1066109740#1 -1066109740#0 1066109734"/>
    </vehicle>
    <vehicle id="18" type="car" depart="36.00">
        <route edges="240737153 1202923333 1476834524 240737146#0 240737146#1 240737146#2 1123532872#0 1123532872#1 1123532872#2 1123532872#3 1064669254 1064669268#0 1064669268#1 1064669268#2 1064669269 1064669253#0 -207171700#0 1064669270#4 1064669271 1202923334 131252329#0 131252329#1 131252329#2 131252329#3 131252329#4 131252329#5 131252329#6 131252329#7 131252329#8 131252329#9 131252329#10 131252329#11 131252329#12 131252329#13 131252329#14 131252329#15"/>
    </vehicle>
    <vehicle id="19" type="car" depart="38.00">
        <route edges="497321503 497321502#3 497321501#2 -1152308065 1152308064#1 -1192563749 236378454#1 1476834527 240180812#0 240180812#1 240180812#2 1123532875 1123532877#0 1064669231#3 1123532872#0"/>
    </vehicle>
    <vehicle id="20" type="car" depart="40.00">
        <route edges="1339368568#2 557578380#6 557578380#7 557578380#8 557578380#9 557578380#10 557578380#11 557578380#12 557578380#13 557578380#14 557578380#15 557578380#16 557578380#17 -238043246#12 -238043246#11 -238043246#10 -238043246#9 -238043246#8 -238043246#7 -238043246#6 -238043246#5 -238043246#4 -238043246#3 -238043246#2 -238043246#1 -238043246#0 -1123535866 -1123535865#1 1000764288 1002932673#4 240738592#1 240738592#2 1123535868 1123535867#0 1123535867#1 1374092530 240738591#0 240738591#1 236378454#0 236378454#1 1476834527 240180812#0 240180812#1 240180812#2 1123532875 1123532877#0 1064669231#3 1123532872#0 1123532872#1 1123532872#2 1123532872#3 1064669254 1064669268#0 1064669268#1 1064669268#2 1064669269 1064669253#0 207171700#1 207171700#2 207171700#3 207171700#4 207171700#5 207171700#6 207171700#7 207171700#8 207171700#9 207171700#10 207171700#11 207171700#12 207171700#13 207171700#14 207171700#15 207171700#16 207171700#17 207171700#18 207171700#19 207171700#20 207171700#21 207171700#22 207171700#23 207171700#24 207171700#25 207171700#26 207171700#27 207171700#28 207171700#29 -814665314#11 -814665314#10 207305854#0 207305854#1 207305854#2 592527371#0 592527371#1 592527371#2 1066101228#0 1066101228#1 -1066101228#1"/>
    </vehicle>
    <vehicle id="21" type="car" depart="42.00">
        <route edges="-1339368641#0 -510070851#1 -510070851#0 -66211507#10 -66211507#9 -66211507#8 -66211507#7 -66211507#6 -238043246#37 -238043246#36 -238043246#35 -238043246#34 -238043246#33 -238043246#32 -238043246#31 -238043246#30 -238043246#29 -238043246#28 -238043246#27"/>
    </vehicle>
    <vehicle id="22" type="car" depart="44.00">
        <route edges="-1066109734 1066109740#0 1066109740#1 1066109740#2 1066109740#3 1066109740#4 -207171700#21 -207171700#20 -207171700#19 -207171700#18 -207171700#17 -207171700#16 -207171700#15 -207171700#14 -207171700#13 -207171700#12 -207171700#11 -207171700#10 -207171700#9 -207171700#8 -207171700#7 -207171700#6 -207171700#5 -207171700#4 -207171700#3 -207171700#2 -207171700#1 -207171700#0 1064669270#4 1064669271 1202923334 1064669255#0 1064669255#1 1064669256 1123532871#0 1123532871#1 1123532871#2 1123532871#3 1123532871#4 1064669236 1123532873#1 1476834526 -236378454#1 -236378454#0 240738595 1374092531 -1123535867#1 -1123535867#0 -1123535868 -240738592#2 -240738592#1 -1002932673#4 -1000764288 1123535865#1 1123535866 238043246#0 640186872#0 640186872#1 640186872#2 640186872#3 640186872#4 640186872#5 640186872#6 -1346407677#5 -1346407677#4 -1346407676#5 -1346407676#4 -1346407676#3 -1346407676#2 -1346407689#1"/>
    </vehicle>
    <vehicle id="23" type="car" depart="46.00">
        <route edges="-1121868675 1066108622#1 1121868678#0 1121868678#1 1000722515#6 1000722515#7 1000722515#8 1000722515#9 1000722515#10 1000722515#11 1000722515#12 -240737143#3 985676956#0 985676956#1 -985676880#3 -985676880#2 -1066108662 -1066108652 -242699985#5 -242699985#4 907630217#0 907630217#1 907630216#0 1066101221 -592528913#2 -592528913#1 -592528913#0 207171700#26 207171700#27 207171700#28 207171700#29 814665314#12 814665314#13 -207305796#9 -207305796#8 -207305796#7 -207305796#6 -207305796#5 -207305796#4 207305822#0 207305798#0 207305798#1 207305798#2 207305798#3 207305798#4 207305798#5 207305798#6 207305798#7 207305798#8 207305798#9 207305798#10 207305798#11 -207305853#7"/>
    </vehicle>
    <vehicle id="24" type="car" depart="48.00">
        <route edges="1192563749 -1152308064#1 1152308064#1 -1192563749 236378454#1 1476834527 240180812#0 1064669235 1064669232#1 1064669232#2 554779424#0 554779424#1 554779424#2 554779424#3 554779424#4 554779424#5 554779424#6 554779424#7 554779424#8 554779424#9 -554779424#9"/>
    </vehicle>
    <vehicle id="25" type="car" depart="50.00">
        <route edges="-497321511#2 -497321511#1 -497321511#0 -131252329#12 -131252329#11 -131252329#10 -131252329#9 -131252329#8 -131252329#7 -131252329#6 -131252329#5 -131252329#4 -131252329#3 -131252329#2 -131252329#1 -131252329#0 1064669255#0 1064669255#1 1064669256 1123532871#0 1123532871#1 1123532871#2 1123532871#3 1123532871#4 1123532871#5 1123532881#1 1064669252 1123532875 1123532877#0 1064669231#3 1123532872#0 1123532872#1 1123532872#2 1123532872#3 1064669254 1064669268#0 1064669268#1 1064669268#2 1064669269 1064669253#0 1064669253#1 1064669253#2 1064669253#3 594822337#1 594822337#2 594822337#3 594822337#4 1451083668#0 1451083668#1 1451083668#2 554784528#0 554784528#1 554784528#2 554784528#3 977808694#0 977808694#1 977808694#2 977808694#3 977808694#4 554781549#1 554781549#2 554783612#5 554783612#6 -1066080811#5 -1066080811#4 -1346407582#1 -1346407582#0"/>
    </vehicle>
    <vehicle id="26" type="car" depart="52.00">
        <route edges="131114370#10 -131114370#10 -131114370#9 -131114370#8 -131114370#7 -1339367183#2 -1339367183#1 -1339367183#0 -1339367179#0 -1339367178#1 -1339367177#1 -1339367177#0 238043246#17 238043246#18 238043246#19 238043246#20 238043246#21 238043246#22 238043246#23 238043246#24 238043246#25 238043246#26 238043246#27 238043246#28 238043246#29 238043246#30 238043246#31 238043246#32 238043246#33 238043246#34 238043246#35 238043246#36 238043246#37 66211507#6 66211507#7 66211507#8 66211507#9 66211507#10 510070851#0 510070851#1 510070851#2 -1305539705#5 -1305539705#4 -1305539705#3 -1305539705#2 1305539705#2"/>
    </vehicle>
    <vehicle id="27" type="car" depart="54.00">
        <route edges="-1339367172 131114370#5 131114370#6 131114370#7 131114370#8 131114370#9 131114370#10 131114370#11 131114370#12 131114370#13 131114370#14 1346407671#0 1346407671#1"/>
    </vehicle>
    <vehicle id="28" type="car" depart="56.00">
        <route edges="-1339367155#0 1339367151#3 -1339367153 -238043246#31 -238043246#30 -238043246#29 -238043246#28 -238043246#27 -238043246#26 -238043246#25 -238043246#24 -238043246#23 -238043246#22 -238043246#21 -238043246#20 -238043246#19 -238043246#18 -238043246#17 -238043246#16 -238043246#15 -238043246#14 -238043246#13 -238043246#12 -238043246#11 -238043246#10 -238043246#9 -238043246#8 -238043246#7 -238043246#6 -238043246#5 -238043246#4 -238043246#3 -238043246#2 -238043246#1 -238043246#0 -1123535866 -1123535865#1 1000764288 1002932673#4 240738592#1 240738592#2 1123535868 1123535867#0 1123535867#1 1374092530 240738591#0 240738591#1 236378454#0 236378454#1 1476834527 240180812#0 240180812#1 240180812#2 1123532875 1123532877#0 1064669231#3 1123532872#0 1123532872#1 1123532872#2 1123532872#3 1064669254 1064669268#0 1064669268#1 1064669268#2 1064669269 1064669253#0 207171700#1 207171700#2 207171700#3 207171700#4 207171700#5 207171700#6 207171700#7 -573010070"/>
    </vehicle>
    <vehicle id="29" type="car" depart="58.00">
        <route edges="985677707 -985677641#2 -985677641#1 -985677641#0 -985677218#2 1084972222 240737156 240737153 1202923333 1476834524 240737146#0 240737146#1 240737146#2 240737146#3 1123532878 1064669252 1123532874#0 1123532874#1 62288201#0 62288201#1 62288201#2 62288201#3 924162708#0 924162708#1 924162708#2 924162708#3 924162708#4 1000757638#0 1000757638#1 1000757638#2 -1000757637#3 -1000757637#2 -1000757637#1 -1000757637#0 -498355710#3 -498355710#2 -498355710#1 -498355710#0 510070844#0 510070847#0 510070847#1 510070847#2 510070847#3 510070847#4 -66211507#15 -66211507#14 -66211507#13 -66211507#12 -66211507#11 -66211507#10 -66211507#9 1339367151#0 1339367151#1"/>
    </vehicle>
    <vehicle id="30" type="car" depart="60.00">
        <route edges="325260973#5 325260973#6 325260973#7 325260973#8 -207305822#6 -207305822#5 -207305822#4 -207305822#3 -207305822#2 -207305822#1 -207305822#0 -207305796#3 -207305796#2 -207305796#1 -207305796#0 510069751#6 510069751#7 -207305860#2 -207305860#1 -207305860#0 207305794#1 207305794#2"/>
    </vehicle>
    <vehicle id="31" type="car" depart="62.00">
        <route edges="-1339368643 1339368642#1 1339368642#2 1339368644#1 -66211507#7 -66211507#6 -238043246#37 -238043246#36 -238043246#35 -238043246#34 -238043246#33 -238043246#32 -238043246#31 -238043246#30 -238043246#29 -238043246#28 -238043246#27 -238043246#26 -238043246#25 -238043246#24 -238043246#23 -238043246#22 -238043246#21 -238043246#20 -238043246#19 -238043246#18 -238043246#17 -238043246#16 -238043246#15 -238043246#14 -238043246#13 -238043246#12 -238043246#11 -238043246#10 -238043246#9 -238043246#8 -238043246#7 -238043246#6 -238043246#5 -238043246#4 -238043246#3 -238043246#2 -238043246#1 -238043246#0 -1123535866 -1123535865#1 1000764288 1002932673#4 240738592#1 240738592#2 1123535868 1123535867#0 1123535867#1 1374092530 240738591#0 240738591#1 236378454#0 236378454#1 1476834527 240180812#0 240180812#1 240180812#2 1123532875 1123532877#0 1064669231#3 1123532872#0 1123532872#1 1123532872#2 1123532872#3 1064669254 1064669268#0 1064669268#1 1064669268#2 1064669269 1064669253#0 207171700#1 207171700#2 207171700#3 207171700#4 207171700#5 207171700#6 207171700#7 207171700#8 207171700#9 207171700#10 207171700#11 207171700#12 207171700#13 207171700#14 207171700#15 207171700#16 207171700#17 207171700#18 207171700#19 207171700#20 207171700#21 207171700#22 207171700#23 207171700#24 1126873845#0 1126873845#1 1126873845#2 1126873845#3 814665314#13 -207305796#9 -1066097026"/>
    </vehicle>
    <vehicle id="32" type="car" depart="64.00">
        <route edges="-207305854#0 814665314#10 814665314#11 814665314#12 814665314#13 -207305796#9 -207305796#8 -207305796#7 -207305796#6 -207305796#5 -207305796#4 207305822#0 -207305822#0"/>
    </vehicle>
    <vehicle id="33" type="car" depart="66.00">
        <route edges="498355711#4 1348207856#0 1348207856#1 -510070846#1 -510070846#0 498355714#2 498355714#3 -66211507#19 -66211507#18 -66211507#17 -66211507#16 -66211507#15 -66211507#14 -66211507#13 -66211507#12 -66211507#11 -66211507#10 -66211507#9 -66211507#8 -66211507#7 -66211507#6 -238043246#37 -238043246#36 -238043246#35 -238043246#34 -238043246#33 -238043246#32 -238043246#31 -238043246#30 -238043246#29 -238043246#28 -238043246#27 -238043246#26 -238043246#25 -238043246#24 -238043246#23 -238043246#22 -238043246#21 -238043246#20 -238043246#19 -238043246#18 -238043246#17 -238043246#16 -238043246#15 -238043246#14 -238043246#13 -238043246#12 -238043246#11 -238043246#10 -238043246#9 -238043246#8 -238043246#7 -238043246#6 -238043246#5 -238043246#4 -238043246#3 -238043246#2 -238043246#1 -238043246#0 -1123535866 -1123535865#1 1000764288 1002932673#4 240738592#1 240738592#2 1123535868 1123535867#0 1123535867#1 1374092530 240738591#0 240738591#1 236378454#0 236378454#1 1476834527 240180812#0 240180812#1 240180812#2 1123532875 1123532877#0 1064669231#3 1123532872#0 1123532872#1 1123532872#2 1123532872#3 1064669254 1064669268#0 1064669268#1 1064669268#2 1064669269 1064669253#0 207171700#1 207171700#2 207171700#3 207171700#4 207171700#5 207171700#6 207171700#7 207171700#8 207171700#9 207171700#10 207171700#11 207171700#12 207171700#13 207171700#14 207171700#15 207171700#16 207171700#17 207171700#18 207171700#19 207171700#20 207171700#21 207171700#22 207171700#23 207171700#24 1126873845#0 1126873845#1 1126873845#2 1126873845#3 814665314#13 -207305796#9 -207305796#8 -207305796#7 -207305796#6 -207305796#5 -207305796#4 207305822#0 207305798#0 207305798#1 207305798#2 207305798#3 -325260991#2"/>
    </vehicle>
    <vehicle id="34" type="car" depart="68.00">