<?xml version="1.0" encoding="UTF-8"?>

<!-- generated on 2026-03-05 15:25:58.895068 by Eclipse SUMO randomTrips.py v1_26_0+0000-fa7df22d7f1
<configuration>
    <net-file value="sumo_config\city.net.xml"/>
    <output-trip-file value="sumo_config\trips.trips.xml"/>
    <route-file value="sumo_config\routes.rou.xml"/>
    <end value="1000.0"/>
    <period value="2.0"/>
</configuration>
-->

<routes xmlns:xsi="http://www.w3.org/2001/XMLSchema-instance" xsi:noNamespaceSchemaLocation="http://sumo.dlr.de/xsd/routes_file.xsd">
    <trip id="0" depart="0.00" from="1231015492" to="-1066080812"/>
    <trip id="1" depart="2.00" from="-1451083336#3" to="-1346407676#4"/>
    <trip id="2" depart="4.00" from="1339371206#0" to="1339368564#4"/>
    <trip id="3" depart="6.00" from="510070848#5" to="-1120471073#1"/>
    <trip id="4" depart="8.00" from="-573010073#2" to="-1066092709"/>
    <trip id="5" depart="10.00" from="-1339368604#2" to="1066080818"/>
    <trip id="6" depart="12.00" from="-1002489702#0" to="-1339368644#0"/>
    <trip id="7" depart="14.00" from="131114370#4" to="1066109713#2"/>
    <trip id="8" depart="16.00" from="-1339368609#1" to="1141931747"/>
    <trip id="9" depart="18.00" from="207305854#0" to="-1000757638#5"/>
    <trip id="10" depart="20.00" from="207305848#1" to="1339368607"/>
    <trip id="11" depart="22.00" from="-242699985#9" to="-1339367190#2"/>
    <trip id="12" depart="24.00" from="651786334#0" to="-498355709#0"/>
    <trip id="13" depart="26.00" from="-1095117461#0" to="-1126873850"/>
    <trip id="14" depart="28.00" from="325260989#2" to="1231027101"/>
    <trip id="15" depart="30.00" from="207305852" to="1346407671#3"/>
    <trip id="16" depart="32.00" from="1064669232#1" to="924161962#1"/>
    <trip id="17" depart="34.00" from="-498355710#4" to="1066109734"/>
    <trip id="18" depart="36.00" from="240737153" to="131252329#15"/>
    <trip id="19" depart="38.00" from="497321503" to="1123532872#0"/>
    <trip id="20" depart="40.00" from="1339368568#2" to="-1066101228#1"/>
    <trip id="21" depart="42.00" from="-1339368641#0" to="-238043246#27"/>
    <trip id="22" depart="44.00" from="-1066109734" to="-1346407689#1"/>
    <trip id="23" depart="46.00" from="-1121868675" to="-207305853#7"/>
    <trip id="24" depart="48.00" from="1192563749" to="-554779424#9"/>
    <trip id="25" depart="50.00" from="-497321511#2" to="-1346407582#0"/>
    <trip id="26" depart="52.00" from="131114370#10" to="1305539705#2"/>
    <trip id="27" depart="54.00" from="-1339367172" to="1346407671#1"/>
    <trip id="28" depart="56.00" from="-1339367155#0" to="-573010070"/>
    <trip id="29" depart="58.00" from="985677707" to="1339367151#1"/>
    <trip id="30" depart="60.00" from="325260973#5" to="207305794#2"/>
    <trip id="31" depart="62.00" from="-1339368643" to="-1066097026"/>
    <trip id="32" depart="64.00" from="-207305854#0" to="-207305822#0"/>
    <trip id="33" depart="66.00" from="498355711#4" to="-325260991#2"/>
    <trip id="34" depart="68.00" from="131252329#3" to="-592528911#0"/>
    <trip id="35" depart="70.00" from="573010071#0" to="-985789866#2"/>
    <trip id="36" depart="72.00" from="1066101204#0" to="-207305796#9"/>
    <trip id="37" depart="74.00" from="1066109709#1" to="557578380#10"/>
    <trip id="38" depart="76.00" from="-510070851#4" to="-1346407671#2"/>
    <trip id="39" depart="78.00" from="985789504#3" to="1066097022#0"/>
    <trip id="40" depart="80.00" from="-1085586812#1" to="-1066105025#0"/>
    <trip id="41" depart="82.00" from="-1134741106" to="1339367099#0"/>
    <trip id="42" depart="84.00" from="207305796#2" to="-66211507#7"/>
    <trip id="43" depart="86.00" from="-1066108655#2" to="-573010073#2"/>
    <trip id="44" depart="88.00" from="985789345#0" to="1066108627#0"/>
    <trip id="45" depart="90.00" from="814665314#9" to="498355710#1"/>
    <trip id="46" depart="92.00" from="-1001036367#2" to="1346407588#1"/>
    <trip id="47" depart="94.00" from="1339367181#2" to="1066108659"/>
    <trip id="48" depart="96.00" from="-1348206663#0" to="1339367151#4"/>
    <trip id="49" depart="98.00" from="-1152308066" to="-924161962#2"/>
    <trip id="50" depart="100.00" from="-594820443#0" to="66211507#1"/>
    <trip id="51" depart="102.00" from="498355711#2" to="-207305798#10"/>
    <trip id="52" depart="104.00" from="-985677952#0" to="-1339368573#1"/>
    <trip id="53" depart="106.00" from="557578380#8" to="503498775#2"/>
    <trip id="54" depart="108.00" from="-207305796#7" to="1339367149#0"/>
    <trip id="55" depart="110.00" from="1095921915#1" to="-1339367182#2"/>
    <trip id="56" depart="112.00" from="1346407689#1" to="1066109702#1"/>
    <trip id="57" depart="114.00" from="1476834524" to="1066108630"/>
    <trip id="58" depart="116.00" from="-1000722515#10" to="-497321500#2"/>
    <trip id="59" depart="118.00" from="-1001611577#2" to="592528922#0"/>
    <trip id="60" depart="120.00" from="498355714#1" to="325260986#1"/>
    <trip id="61" depart="122.00" from="-207305825#5" to="-1066109696"/>
    <trip id="62" depart="124.00" from="498355713#1" to="594828673"/>
    <trip id="63" depart="126.00" from="-1068456710#1" to="1002489702#1"/>
    <trip id="64" depart="128.00" from="1348206663#0" to="-1329807706#0"/>
    <trip id="65" depart="130.00" from="-814665314#20" to="1066109723"/>
    <trip id="66" depart="132.00" from="-1346407695#1" to="510069751#2"/>
    <trip id="67" depart="134.00" from="1064669253#0" to="1346407671#4"/>
    <trip id="68" depart="136.00" from="-1339368567#4" to="-325260987#1"/>
    <trip id="69" depart="138.00" from="985684200#3" to="1339367172"/>
    <trip id="70" depart="140.00" from="-592528912" to="1066101204#2"/>
    <trip id="71" depart="142.00" from="-1199454017#4" to="-1346407677#3"/>
    <trip id="72" depart="144.00" from="-242699985#18" to="1136595703#1"/>
    <trip id="73" depart="146.00" from="-1339368646#1" to="-1346407672#0"/>
    <trip id="74" depart="148.00" from="-1066109710" to="1339367131#5"/>
    <trip id="75" depart="150.00" from="-1339368642#2" to="573010073#1"/>
    <trip id="76" depart="152.00" from="497321501#0" to="-1066109727"/>
    <trip id="77" depart="154.00" from="-1339371206#0" to="1339368551#0"/>
    <trip id="78" depart="156.00" from="-1339368593#0" to="-1339367114"/>
    <trip id="79" depart="158.00" from="592528919#0" to="1120471073#4"/>
    <trip id="80" depart="160.00" from="-814665314#11" to="207305822#0"/>
    <trip id="81" depart="162.00" from="207305853#0" to="-1339368604#2"/>
    <trip id="82" depart="164.00" from="-1096230040" to="-907630217#1"/>
    <trip id="83" depart="166.00" from="-573010074#5" to="1000757639#0"/>
    <trip id="84" depart="168.00" from="1339368644#1" to="1339368561#1"/>
    <trip id="85" depart="170.00" from="985677218#3" to="-1141931747"/>
    <trip id="86" depart="172.00" from="-554779424#19" to="-498355710#6"/>
    <trip id="87" depart="174.00" from="497321503" to="-207171700#10"/>
    <trip id="88" depart="176.00" from="-1339368551#0" to="-985677641#3"/>
    <trip id="89" depart="178.00" from="-573010073#2" to="-207305854#2"/>
    <trip id="90" depart="180.00" from="-1346407670#0" to="592528915#0"/>
    <trip id="91" depart="182.00" from="-592528918#3" to="498355710#11"/>
    <trip id="92" depart="184.00" from="1066092691#1" to="-1066108631#0"/>
    <trip id="93" depart="186.00" from="985789866#1" to="325260992#2"/>
    <trip id="94" depart="188.00" from="814665314#23" to="592528918#1"/>
    <trip id="95" depart="190.00" from="325260990#3" to="-1339368553#1"/>
    <trip id="96" depart="192.00" from="-554779424#13" to="-1066109699"/>
    <trip id="97" depart="194.00" from="-498355710#6" to="985677368#2"/>
    <trip id="98" depart="196.00" from="-1346407696#0" to="207305812"/>
    <trip id="99" depart="198.00" from="-594822331#1" to="-678831729#0"/>
    <trip id="100" depart="200.00" from="651786334#1" to="985788911#2"/>
    <trip id="101" depart="202.00" from="-1339367137" to="-240738590"/>
    <trip id="102" depart="204.00" from="814665314#22" to="1123532874#1"/>
    <trip id="103" depart="206.00" from="1064669260" to="1348212965"/>
    <trip id="104" depart="208.00" from="-1066108627#0" to="1126873799"/>
    <trip id="105" depart="210.00" from="-985680309" to="497321509#1"/>
    <trip id="106" depart="212.00" from="-1339367143" to="678831731"/>
    <trip id="107" depart="214.00" from="-1066109736" to="-1339368592#0"/>
    <trip id="108" depart="216.00" from="1066109730" to="1339368562"/>
    <trip id="109" depart="218.00" from="-1339368652#0" to="-131114370#3"/>
    <trip id="110" depart="220.00" from="510070847#3" to="-1451083668#1"/>
    <trip id="111" depart="222.00" from="1066109728" to="131252329#18"/>
    <trip id="112" depart="224.00" from="-573010069#0" to="1123535869#0"/>
    <trip id="113" depart="226.00" from="1001602108#0" to="592531107"/>
    <trip id="114" depart="228.00" from="-1339368570#1" to="1339371204#1"/>
    <trip id="115" depart="230.00" from="-1339371208" to="-592528911#1"/>
    <trip id="116" depart="232.00" from="1339367151#1" to="-242699985#12"/>
    <trip id="117" depart="234.00" from="-207305854#3" to="1390040336"/>
    <trip id="118" depart="236.00" from="-1066109713#1" to="-985789866#0"/>
    <trip id="119" depart="238.00" from="985789504#7" to="985789504#1"/>
    <trip id="120" depart="240.00" from="-1346407696#0" to="592528935"/>
    <trip id="121" depart="242.00" from="498358569#2" to="510070847#4"/>
    <trip id="122" depart="244.00" from="-497321511#0" to="-1339368533"/>
    <trip id="123" depart="246.00" from="242699985#10" to="1339368617"/>
    <trip id="124" depart="248.00" from="1120471077" to="985677608#1"/>
    <trip id="125" depart="250.00" from="131252329#17" to="-1000764288"/>
    <trip id="126" depart="252.00" from="238043246#14" to="-242699985#10"/>
    <trip id="127" depart="254.00" from="1339367131#1" to="594822329#2"/>
    <trip id="128" depart="256.00" from="-131114370#11" to="-1305539706#1"/>
    <trip id="129" depart="258.00" from="-1126873845#3" to="1066109740#0"/>
    <trip id="130" depart="260.00" from="-1390040335" to="1231030042"/>
    <trip id="131" depart="262.00" from="1339368598#1" to="-1339368651#3"/>
    <trip id="132" depart="264.00" from="1190181264" to="-207305798#12"/>
    <trip id="133" depart="266.00" from="-978017473#0" to="573010073#1"/>
    <trip id="134" depart="268.00" from="325260986#1" to="-1123535867#1"/>
    <trip id="135" depart="270.00" from="-573010074#5" to="-207305853#2"/>
    <trip id="136" depart="272.00" from="-1000756098#0" to="207171700#5"/>
    <trip id="137" depart="274.00" from="1199454018#0" to="-207305796#6"/>
    <trip id="138" depart="276.00" from="1346407596#0" to="1066109733"/>
    <trip id="139" depart="278.00" from="-592527362" to="-1001036367#1"/>
    <trip id="140" depart="280.00" from="-1066109715" to="510070851#4"/>
    <trip id="141" depart="282.00" from="554784528#0" to="1066109713#5"/>
    <trip id="142" depart="284.00" from="242699985#13" to="1123535866"/>
    <trip id="143" depart="286.00" from="-1329807713#1" to="-131252329#9"/>
    <trip id="144" depart="288.00" from="-207305833" to="557578380#14"/>
    <trip id="145" depart="290.00" from="207305798#4" to="498355710#0"/>
    <trip id="146" depart="292.00" from="554779424#5" to="-1346407587#0"/>
    <trip id="147" depart="294.00" from="207171700#10" to="554779424#10"/>
    <trip id="148" depart="296.00" from="-554783612#10" to="131252329#22"/>
    <trip id="149" depart="298.00" from="-1339367136#2" to="592528923#0"/>
    <trip id="150" depart="300.00" from="497321509#1" to="977734790#3"/>
    <trip id="151" depart="302.00" from="207305854#5" to="510070849#1"/>
    <trip id="152" depart="304.00" from="-1002473256#3" to="1346407679#0"/>
    <trip id="153" depart="306.00" from="-240737143#3" to="592528928#0"/>
    <trip id="154" depart="308.00" from="207305825#5" to="498355711#0"/>
    <trip id="155" depart="310.00" from="207305854#5" to="-207305805#0"/>
    <trip id="156" depart="312.00" from="207305793#0" to="-1199454018#2"/>
    <trip id="157" depart="314.00" from="498355710#0" to="498355703#8"/>
    <trip id="158" depart="316.00" from="-1339368613#1" to="240738591#0"/>
    <trip id="159" depart="318.00" from="-640186872#1" to="-325260972#3"/>
    <trip id="160" depart="320.00" from="207305798#12" to="-1346407681#0"/>
    <trip id="161" depart="322.00" from="-1001687474#1" to="-1339368611#1"/>
    <trip id="162" depart="324.00" from="-238043246#32" to="498355711#1"/>
    <trip id="163" depart="326.00" from="814665314#16" to="-207305854#4"/>
    <trip id="164" depart="328.00" from="1239073712#0" to="-592528918#0"/>
    <trip id="165" depart="330.00" from="985676880#1" to="1066108656#1"/>
    <trip id="166" depart="332.00" from="592528928#1" to="-1305539706#0"/>
    <trip id="167" depart="334.00" from="814665314#7" to="-1339368573#0"/>
    <trip id="168" depart="336.00" from="66211507#6" to="-207305798#7"/>
    <trip id="169" depart="338.00" from="-1126873848" to="-924161962#1"/>
    <trip id="170" depart="340.00" from="1339368642#2" to="-325260990#3"/>
    <trip id="171" depart="342.00" from="-498358569#0" to="1123532871#3"/>
    <trip id="172" depart="344.00" from="-1346407676#4" to="1339368646#1"/>
    <trip id="173" depart="346.00" from="-1000722515#3" to="592528917#6"/>
    <trip id="174" depart="348.00" from="1064669250" to="1346407583"/>
    <trip id="175" depart="350.00" from="-497321501#2" to="-1066109723"/>
    <trip id="176" depart="352.00" from="1339367131#4" to="-497321511#0"/>
    <trip id="177" depart="354.00" from="-207305853#2" to="497321501#2"/>
    <trip id="178" depart="356.00" from="1339368604#0" to="-242699985#14"/>
    <trip id="179" depart="358.00" from="-554779424#18" to="-240737151"/>
    <trip id="180" depart="360.00" from="-1239072566#0" to="-66211507#20"/>
    <trip id="181" depart="362.00" from="592528928#5" to="1339368565#0"/>
    <trip id="182" depart="364.00" from="554783612#6" to="131114370#5"/>
    <trip id="183" depart="366.00" from="-207305798#3" to="1066109719#0"/>
    <trip id="184" depart="368.00" from="-1000722515#1" to="-238043246#19"/>
    <trip id="185" depart="370.00" from="-592527371#1" to="1123532877#0"/>
    <trip id="186" depart="372.00" from="131252329#2" to="1000757638#0"/>
    <trip id="187" depart="374.00" from="-814665314#13" to="557578380#7"/>
    <trip id="188" depart="376.00" from="207305798#4" to="-1339368561#5"/>
    <trip id="189" depart="378.00" from="1190180905" to="-498355703#7"/>
    <trip id="190" depart="380.00" from="238043246#19" to="1390040334#1"/>
    <trip id="191" depart="382.00" from="1339367151#5" to="-1346407677#3"/>
    <trip id="192" depart="384.00" from="-1339368565#2" to="-1066080811#4"/>
    <trip id="193" depart="386.00" from="325260992#0" to="-1066109740#0"/>
    <trip id="194" depart="388.00" from="-557578380#12" to="1339367131#0"/>
    <trip id="195" depart="390.00" from="-1339368561#0" to="1339368603"/>
    <trip id="196" depart="392.00" from="-985677293" to="-1451083339#0"/>
    <trip id="197" depart="394.00" from="131252329#5" to="-1000757638#2"/>
    <trip id="198" depart="396.00" from="1346407674#1" to="207171700#28"/>
    <trip id="199" depart="398.00" from="-1126873845#1" to="-814665314#13"/>
    <trip id="200" depart="400.00" from="-1339367183#1" to="66211507#4"/>
    <trip id="201" depart="402.00" from="1000764288" to="-1066108630"/>
    <trip id="202" depart="404.00" from="1339367140#0" to="985677641#1"/>
    <trip id="203" depart="406.00" from="1066109735" to="640186872#3"/>
    <trip id="204" depart="408.00" from="510070848#3" to="131114370#10"/>
    <trip id="205" depart="410.00" from="1339368601" to="1066080816#2"/>
    <trip id="206" depart="412.00" from="240738590" to="1066109719#0"/>
    <trip id="207" depart="414.00" from="554779424#18" to="1346407695#1"/>
    <trip id="208" depart="416.00" from="-814665314#18" to="-207305794#1"/>
    <trip id="209" depart="418.00" from="1348206663#0" to="1066101215"/>
    <trip id="210" depart="420.00" from="1134741106" to="-207305848#2"/>
    <trip id="211" depart="422.00" from="-1066109722" to="-238043246#14"/>
    <trip id="212" depart="424.00" from="-1390040334#0" to="-497321496#1"/>
    <trip id="213" depart="426.00" from="1064669253#3" to="-1339367140#2"/>
    <trip id="214" depart="428.00" from="-1339368649#0" to="1339368597"/>
    <trip id="215" depart="430.00" from="1339368569#6" to="-1066109713#1"/>
    <trip id="216" depart="432.00" from="-554783612#5" to="1066109709#3"/>
    <trip id="217" depart="434.00" from="-557578380#17" to="-1339371206#0"/>
    <trip id="218" depart="436.00" from="-573010071#2" to="573010072#1"/>
    <trip id="219" depart="438.00" from="1066109707" to="1339368600"/>
    <trip id="220" depart="440.00" from="497321498#2" to="207171700#12"/>
    <trip id="221" depart="442.00" from="-498355711#1" to="-1000757638#3"/>
    <trip id="222" depart="444.00" from="-325260992#1" to="1451083336#1"/>
    <trip id="223" depart="446.00" from="497316920#1" to="651786334#2"/>
    <trip id="224" depart="448.00" from="-573010067#1" to="1348207856#1"/>
    <trip id="225" depart="450.00" from="1066080809#2" to="1231015492"/>
    <trip id="226" depart="452.00" from="-1339368609#1" to="-1346407671#2"/>
    <trip id="227" depart="454.00" from="-592528907#0" to="-1066092706"/>
    <trip id="228" depart="456.00" from="-242699985#10" to="1339368567#2"/>
    <trip id="229" depart="458.00" from="-554779424#6" to="-1339368550"/>
    <trip id="230" depart="460.00" from="-66211507#22" to="-1316877783"/>
    <trip id="231" depart="462.00" from="1123535869#0" to="-1066092691#0"/>
    <trip id="232" depart="464.00" from="-510070846#2" to="1095117460#1"/>
    <trip id="233" depart="466.00" from="-1002489703" to="1339367156#0"/>
    <trip id="234" depart="468.00" from="-131114370#16" to="1000722515#6"/>
    <trip id="235" depart="470.00" from="-1066101220" to="-573010069#0"/>
    <trip id="236" depart="472.00" from="-1339368587#3" to="-497321504"/>
    <trip id="237" depart="474.00" from="1346407686#2" to="-573010069#0"/>
    <trip id="238" depart="476.00" from="1346407676#0" to="325260987#0"/>
    <trip id="239" depart="478.00" from="-1346407673" to="-1085586812#2"/>
    <trip id="240" depart="480.00" from="-1001611577#10" to="1066109702#1"/>
    <trip id="241" depart="482.00" from="985791013#0" to="-510069751#7"/>
    <trip id="242" depart="484.00" from="131114370#4" to="207305798#3"/>
    <trip id="243" depart="486.00" from="131252329#1" to="1451083336#3"/>
    <trip id="244" depart="488.00" from="-1001611577#5" to="-1339367182#1"/>
    <trip id="245" depart="490.00" from="-1231030042" to="1339368552"/>
    <trip id="246" depart="492.00" from="1339368561#5" to="207171700#17"/>
    <trip id="247" depart="494.00" from="-1339367163" to="1239073712#3"/>
    <trip id="248" depart="496.00" from="238043246#21" to="814665314#19"/>
    <trip id="249" depart="498.00" from="-1126873847#1" to="-1066080815"/>
    <trip id="250" depart="500.00" from="-207305848#2" to="1339368565#0"/>
    <trip id="251" depart="502.00" from="66211507#1" to="-592528913#1"/>
    <trip id="252" depart="504.00" from="1339368590#1" to="-1068456709"/>
    <trip id="253" depart="506.00" from="1339368541#1" to="1329813897"/>
    <trip id="254" depart="508.00" from="-1121868677#0" to="207305793#0"/>
    <trip id="255" depart="510.00" from="325260992#2" to="1199454018#2"/>
    <trip id="256" depart="512.00" from="-1199454017#4" to="985677237#3"/>
    <trip id="257" depart="514.00" from="207171700#2" to="-503498781#0"/>
    <trip id="258" depart="516.00" from="-592527365#2" to="-557578378#10"/>
    <trip id="259" depart="518.00" from="-985789504#0" to="-498355711#4"/>
    <trip id="260" depart="520.00" from="325260991#2" to="242699985#4"/>
    <trip id="261" depart="522.00" from="-1123535869#1" to="678831731"/>
    <trip id="262" depart="524.00" from="1192563749" to="325260973#7"/>
    <trip id="263" depart="526.00" from="1339368570#1" to="-924162708#2"/>
    <trip id="264" depart="528.00" from="1339368652#0" to="814665314#21"/>
    <trip id="265" depart="530.00" from="-1349175775#0" to="238043246#31"/>
    <trip id="266" depart="532.00" from="1064669249" to="1002473256#1"/>
    <trip id="267" depart="534.00" from="-592528906#2" to="1346407674#0"/>
    <trip id="268" depart="536.00" from="-1348206666" to="497321507"/>
    <trip id="269" depart="538.00" from="240738591#0" to="-1120471073#0"/>
    <trip id="270" depart="540.00" from="503498775#2" to="-1451083337#0"/>
    <trip id="271" depart="542.00" from="-66211507#12" to="1305539706#1"/>
    <trip id="272" depart="544.00" from="-498355710#6" to="-1066092705"/>
    <trip id="273" depart="546.00" from="380704438#0" to="-1339368583#2"/>
    <trip id="274" depart="548.00" from="-1339368587#4" to="207305860#2"/>
    <trip id="275" depart="550.00" from="-242699985#9" to="510070848#3"/>
    <trip id="276" depart="552.00" from="1339368564#3" to="-207305853#1"/>
    <trip id="277" depart="554.00" from="-1001015645" to="62288201#3"/>
    <trip id="278" depart="556.00" from="-1068456710#1" to="1346407587#1"/>
    <trip id="279" depart="558.00" from="-978017473#0" to="1451083344#3"/>
    <trip id="280" depart="560.00" from="1339368541#1" to="1339367162#1"/>
    <trip id="281" depart="562.00" from="-985676880#4" to="207305850"/>
    <trip id="282" depart="564.00" from="-1095117461#1" to="-1346407675#0"/>
    <trip id="283" depart="566.00" from="1339368542#3" to="-325260973#0"/>
    <trip id="284" depart="568.00" from="1066109698" to="1001047170#4"/>
    <trip id="285" depart="570.00" from="1002489702#0" to="-814665314#14"/>
    <trip id="286" depart="572.00" from="1339368567#0" to="-207305829#0"/>
    <trip id="287" depart="574.00" from="-1346407671#4" to="-131114370#6"/>
    <trip id="288" depart="576.00" from="-1339368555" to="-131114370#15"/>
    <trip id="289" depart="578.00" from="924162708#3" to="1066101225#2"/>
    <trip id="290" depart="580.00" from="-1339368560" to="-1346407681#0"/>
    <trip id="291" depart="582.00" from="-1339367194" to="-1001611577#1"/>
    <trip id="292" depart="584.00" from="1064669230#3" to="-207305848#0"/>
    <trip id="293" depart="586.00" from="924161747#1" to="1066109740#0"/>
    <trip id="294" depart="588.00" from="1339368557#1" to="-131252329#5"/>
    <trip id="295" depart="590.00" from="498355703#0" to="1064669231#1"/>
    <trip id="296" depart="592.00" from="498355710#10" to="1121868677#0"/>
    <trip id="297" depart="594.00" from="-66211507#9" to="-985676880#1"/>
    <trip id="298" depart="596.00" from="-1339368538#2" to="-1066108633#1"/>
    <trip id="299" depart="598.00" from="592531106#0" to="1001602110"/>
    <trip id="300" depart="600.00" from="238043246#31" to="-592528919#0"/>
    <trip id="301" depart="602.00" from="-1066109713#7" to="1339367130"/>
    <trip id="302" depart="604.00" from="-1066101228#0" to="-1339367170#0"/>
    <trip id="303" depart="606.00" from="1066101208#0" to="-30919033#0"/>
    <trip id="304" depart="608.00" from="985680442#0" to="-131114370#11"/>
    <trip id="305" depart="610.00" from="1346407695#1" to="1239072566#1"/>
    <trip id="306" depart="612.00" from="207305794#2" to="-1346407678#1"/>
    <trip id="307" depart="614.00" from="1001381327#0" to="-985677952#0"/>
    <trip id="308" depart="616.00" from="-592528918#2" to="498355709#1"/>
    <trip id="309" depart="618.00" from="985677745#0" to="-325260972#4"/>
    <trip id="310" depart="620.00" from="1123535865#1" to="1305539705#4"/>
    <trip id="311" depart="622.00" from="1346407587#0" to="62288201#2"/>
    <trip id="312" depart="624.00" from="-1339368580" to="-1346407588#0"/>
    <trip id="313" depart="626.00" from="1329807712" to="-1339368531#1"/>
    <trip id="314" depart="628.00" from="-1339367180#1" to="-1066110583"/>
    <trip id="315" depart="630.00" from="-1000722515#7" to="-985677952#0"/>
    <trip id="316" depart="632.00" from="1066109726" to="-238043246#33"/>
    <trip id="317" depart="634.00" from="-1339368649#1" to="1339368642#0"/>
    <trip id="318" depart="636.00" from="1339368567#1" to="-985684200#2"/>
    <trip id="319" depart="638.00" from="1339368532#1" to="592528916"/>
    <trip id="320" depart="640.00" from="207305793#1" to="1329807706#3"/>
    <trip id="321" depart="642.00" from="1329807714" to="592528939"/>
    <trip id="322" depart="644.00" from="-592527356" to="1066109713#1"/>
    <trip id="323" depart="646.00" from="131114370#1" to="573010074#8"/>
    <trip id="324" depart="648.00" from="240737143#1" to="-1066109729"/>
    <trip id="325" depart="650.00" from="-1339367160#2" to="-325260973#4"/>
    <trip id="326" depart="652.00" from="1346407671#1" to="1096230041"/>
    <trip id="327" depart="654.00" from="-207171700#23" to="-131252329#18"/>
    <trip id="328" depart="656.00" from="1339368536#2" to="1339368610#2"/>
    <trip id="329" depart="658.00" from="-985677237#2" to="-1085586809#1"/>
    <trip id="330" depart="660.00" from="-238043246#12" to="-207171700#16"/>
    <trip id="331" depart="662.00" from="-1085586813#0" to="761448796"/>
    <trip id="332" depart="664.00" from="242699985#18" to="1122707918"/>
    <trip id="333" depart="666.00" from="1339367151#3" to="-207305825#0"/>
    <trip id="334" depart="668.00" from="-678831730" to="1339367178#2"/>
    <trip id="335" depart="670.00" from="573010072#1" to="-1339368583#1"/>
    <trip id="336" depart="672.00" from="1066109709#3" to="1339367140#2"/>
    <trip id="337" depart="674.00" from="-985676956#0" to="-1123535865#0"/>
    <trip id="338" depart="676.00" from="-325260986#1" to="-497321514#2"/>
    <trip id="339" depart="678.00" from="1339367147#0" to="498355703#5"/>
    <trip id="340" depart="680.00" from="-238043246#4" to="1339368595"/>
    <trip id="341" depart="682.00" from="207305863#6" to="1066109724"/>
    <trip id="342" depart="684.00" from="-594822331#1" to="-325260991#2"/>
    <trip id="343" depart="686.00" from="-238043246#15" to="907631636#3"/>
    <trip id="344" depart="688.00" from="985677608#0" to="1339367190#2"/>
    <trip id="345" depart="690.00" from="-1339368545#0" to="-554779424#16"/>
    <trip id="346" depart="692.00" from="1346407679#1" to="1329807706#4"/>
    <trip id="347" depart="694.00" from="1346407684#3" to="-1339368651#3"/>
    <trip id="348" depart="696.00" from="1066080816#1" to="592528920#0"/>
    <trip id="349" depart="698.00" from="-592528912" to="1339368607"/>
    <trip id="350" depart="700.00" from="-1199454017#5" to="924161962#1"/>
    <trip id="351" depart="702.00" from="1095921915#0" to="-1348212963"/>
    <trip id="352" depart="704.00" from="-1339367144#2" to="1066109729"/>
    <trip id="353" depart="706.00" from="1066092706" to="-1126873799"/>
    <trip id="354" depart="708.00" from="985679504" to="592527369#0"/>
    <trip id="355" depart="710.00" from="-640186872#5" to="-1305539713"/>
    <trip id="356" depart="712.00" from="240738595" to="1064669262"/>
    <trip id="357" depart="714.00" from="1339368593#1" to="1066092708"/>
    <trip id="358" depart="716.00" from="-1451083335#0" to="325260991#0"/>
    <trip id="359" depart="718.00" from="978017473#0" to="-1451083337#0"/>
    <trip id="360" depart="720.00" from="1066092697" to="-573010074#5"/>
    <trip id="361" depart="722.00" from="592527359#2" to="1066092705"/>
    <trip id="362" depart="724.00" from="498355714#3" to="498355711#0"/>
    <trip id="363" depart="726.00" from="-1451083339#1" to="207305844#4"/>
    <trip id="364" depart="728.00" from="-557578380#14" to="592531106#1"/>
    <trip id="365" depart="730.00" from="-985789504#7" to="242699985#14"/>
    <trip id="366" depart="732.00" from="1066109712#1" to="985789866#2"/>
    <trip id="367" depart="734.00" from="-978017474#1" to="-1339367167"/>
    <trip id="368" depart="736.00" from="1064669250" to="-498355716"/>
    <trip id="369" depart="738.00" from="1066092705" to="1066109711#1"/>
    <trip id="370" depart="740.00" from="-1339368547#1" to="1339368605#0"/>
    <trip id="371" depart="742.00" from="1066108625#1" to="-1346407692"/>
    <trip id="372" depart="744.00" from="1451083344#1" to="-1066101223#1"/>
    <trip id="373" depart="746.00" from="207305860#0" to="-592527358#3"/>
    <trip id="374" depart="748.00" from="1339367131#2" to="242699985#15"/>
    <trip id="375" depart="750.00" from="978017474#0" to="1064669253#1"/>
    <trip id="376" depart="752.00" from="-1066092709" to="1066080811#1"/>
    <trip id="377" depart="754.00" from="1066109716" to="498358569#3"/>
    <trip id="378" depart="756.00" from="498355710#6" to="-985676880#0"/>
    <trip id="379" depart="758.00" from="1001611577#7" to="-985789504#4"/>
    <trip id="380" depart="760.00" from="1339368610#1" to="-594822331#1"/>
    <trip id="381" depart="762.00" from="131252329#2" to="-1339367187"/>
    <trip id="382" depart="764.00" from="-678831729#0" to="907630217#1"/>
    <trip id="383" depart="766.00" from="-242699985#2" to="1339368593#0"/>
    <trip id="384" depart="768.00" from="131114370#3" to="497321507"/>
    <trip id="385" depart="770.00" from="497316916#3" to="498355705"/>
    <trip id="386" depart="772.00" from="-498355710#9" to="-497316916#1"/>
    <trip id="387" depart="774.00" from="1339368599#3" to="1451083668#2"/>
    <trip id="388" depart="776.00" from="-1066109704" to="1339367131#5"/>
    <trip id="389" depart="778.00" from="592527358#2" to="985789504#6"/>
    <trip id="390" depart="780.00" from="-1120471073#2" to="1339367138"/>
    <trip id="391" depart="782.00" from="498355710#10" to="-985677237#0"/>
    <trip id="392" depart="784.00" from="1339368548#0" to="573010069#1"/>
    <trip id="393" depart="786.00" from="-1066101205" to="207305854#2"/>
    <trip id="394" depart="788.00" from="-207305793#3" to="-557578380#14"/>
    <trip id="395" depart="790.00" from="-1329807706#0" to="1066108632"/>
    <trip id="396" depart="792.00" from="1066101220" to="207305848#3"/>
    <trip id="397" depart="794.00" from="-1339367169" to="-1085586808#5"/>