<?xml version="1.0" encoding="UTF-8"?>

<!-- generated on 2026-02-28 21:10:18.049427 by Eclipse SUMO randomTrips.py v1_26_0+0000-fa7df22d7f1
<configuration>
    <net-file value="sumo_config/urban.net.xml"/>
    <output-trip-file value="sumo_config/urban.trips.xml"/>
    <vehicle-class value="passenger"/>
    <length value="True"/>
    <end value="200.0"/>
    <period value="2.0"/>
</configuration>
-->

<routes xmlns:xsi="http://www.w3.org/2001/XMLSchema-instance" xsi:noNamespaceSchemaLocation="http://sumo.dlr.de/xsd/routes_file.xsd">
    <vType id="passenger" vClass="passenger"/>
    <trip id="0" depart="0.00" from="C1D1" to="A0B0" type="passenger"/>
    <trip id="1" depart="2.00" from="B1A1" to="B0A0" type="passenger"/>
    <trip id="2" depart="4.00" from="C3B3" to="C2C1" type="passenger"/>
    <trip id="3" depart="6.00" from="D1D2" to="A1B1" type="passenger"/>
    <trip id="4" depart="8.00" from="B2C2" to="A0B0" type="passenger"/>
    <trip id="5" depart="10.00" from="B0A0" to="C0B0" type="passenger"/>
    <trip id="6" depart="12.00" from="A0B0" to="A3B3" type="passenger"/>
    <trip id="7" depart="14.00" from="C2B2" to="C0D0" type="passenger"/>
    <trip id="8" depart="16.00" from="B0A0" to="C1C0" type="passenger"/>
    <trip id="9" depart="18.00" from="D0C0" to="A0A1" type="passenger"/>
    <trip id="10" depart="20.00" from="D0C0" to="C2C3" type="passenger"/>
    <trip id="11" depart="22.00" from="B1C1" to="A2B2" type="passenger"/>
    <trip id="12" depart="24.00" from="D2D3" to="B1C1" type="passenger"/>
    <trip id="13" depart="26.00" from="A1B1" to="A1B1" type="passenger"/>
    <trip id="14" depart="28.00" from="D1C1" to="C1C0" type="passenger"/>
    <trip id="15" depart="30.00" from="D0C0" to="C3B3" type="passenger"/>
    <trip id="16" depart="32.00" from="C0C1" to="D3C3" type="passenger"/>
    <trip id="17" depart="34.00" from="B2B1" to="C0D0" type="passenger"/>
    <trip id="18" depart="36.00" from="D0D1" to="C1C2" type="passenger"/>
    <trip id="19" depart="38.00" from="D1D0" to="C1B1" type="passenger"/>
    <trip id="20" depart="40.00" from="C2C3" to="A1A0" type="passenger"/>
    <trip id="21" depart="42.00" from="B0A0" to="B1A1" type="passenger"/>
    <trip id="22" depart="44.00" from="A1A2" to="B0B1" type="passenger"/>
    <trip id="23" depart="46.00" from="A1B1" to="B1A1" type="passenger"/>
    <trip id="24" depart="48.00" from="C1D1" to="B2A2" type="passenger"/>
    <trip id="25" depart="50.00" from="B2A2" to="A3B3" type="passenger"/>
    <trip id="26" depart="52.00" from="B0C0" to="D2D3" type="passenger"/>
    <trip id="27" depart="54.00" from="C2B2" to="C1C2" type="passenger"/>
    <trip id="28" depart="56.00" from="A3A2" to="C3B3" type="passenger"/>
    <trip id="29" depart="58.00" from="A2B2" to="B2B1" type="passenger"/>
    <trip id="30" depart="60.00" from="D3D2" to="C1D1" type="passenger"/>
    <trip id="31" depart="62.00" from="C0D0" to="C2C1" type="passenger"/>
    <trip id="32" depart="64.00" from="D1C1" to="C3D3" type="passenger"/>
    <trip id="33" depart="66.00" from="B0A0" to="A0B0" type="passenger"/>
    <trip id="34" depart="68.00" from="B1B2" to="B0C0" type="passenger"/>
    <trip id="35" depart="70.00" from="B0A0" to="D2D3" type="passenger"/>
    <trip id="36" depart="72.00" from="D1D2" to="B1B2" type="passenger"/>
    <trip id="37" depart="74.00" from="C2B2" to="B2B1" type="passenger"/>
    <trip id="38" depart="76.00" from="D2C2" to="B3B2" type="passenger"/>
    <trip id="39" depart="78.00" from="B0C0" to="B0B1" type="passenger"/>
    <trip id="40" depart="80.00" from="C0D0" to="B0C0" type="passenger"/>
    <trip id="41" depart="82.00" from="C1C0" to="D2C2" type="passenger"/>
    <trip id="42" depart="84.00" from="B2B3" to="B0A0" type="passenger"/>
    <trip id="43" depart="86.00" from="D3D2" to="C0B0" type="passenger"/>
    <trip id="44" depart="88.00" from="A1B1" to="A1A0" type="passenger"/>
    <trip id="45" depart="90.00" from="A2A1" to="C1D1" type="passenger"/>
    <trip id="46" depart="92.00" from="D0C0" to="B2C2" type="passenger"/>
    <trip id="47" depart="94.00" from="A1A2" to="B2B1" type="passenger"/>
    <trip id="48" depart="96.00" from="D3D2" to="C0C1" type="passenger"/>
    <trip id="49" depart="98.00" from="D3C3" to="D1D0" type="passenger"/>
    <trip id="50" depart="100.00" from="A0A1" to="C2D2" type="passenger"/>
    <trip id="51" depart="102.00" from="C2C1" to="C0C1" type="passenger"/>
    <trip id="52" depart="104.00" from="B0C0" to="C1D1" type="passenger"/>
    <trip id="53" depart="106.00" from="A2A1" to="B2C2" type="passenger"/>
    <trip id="54" depart="108.00" from="B3A3" to="D2D3" type="passenger"/>
    <trip id="55" depart="110.00" from="D1D2" to="B0C0" type="passenger"/>
    <trip id="56" depart="112.00" from="C0B0" to="A3A2" type="passenger"/>
    <trip id="57" depart="114.00" from="D2C2" to="D1D0" type="passenger"/>
    <trip id="58" depart="116.00" from="B1B0" to="C1D1" type="passenger"/>
    <trip id="59" depart="118.00" from="C1C2" to="A2B2" type="passenger"/>
    <trip id="60" depart="120.00" from="C3C2" to="C0C1" type="passenger"/>
    <trip id="61" depart="122.00" from="C3D3" to="C0C1" type="passenger"/>
    <trip id="62" depart="124.00" from="A0A1" to="B1B2" type="passenger"/>
    <trip id="63" depart="126.00" from="A0A1" to="D2D1" type="passenger"/>
    <trip id="64" depart="128.00" from="D1D2" to="D0D1" type="passenger"/>
    <trip id="65" depart="130.00" from="B1B0" to="A1A0" type="passenger"/>
    <trip id="66" depart="132.00" from="D1D2" to="D2D3" type="passenger"/>
    <trip id="67" depart="134.00" from="A1B1" to="B3C3" type="passenger"/>
    <trip id="68" depart="136.00" from="A1A2" to="C3C2" type="passenger"/>
    <trip id="69" depart="138.00" from="C3C2" to="A2A3" type="passenger"/>
    <trip id="70" depart="140.00" from="B3B2" to="C0D0" type="passenger"/>
    <trip id="71" depart="142.00" from="B0C0" to="D1D0" type="passenger"/>
    <trip id="72" depart="144.00" from="B2C2" to="B0A0" type="passenger"/>
    <trip id="73" depart="146.00" from="C0C1" to="C3B3" type="passenger"/>
    <trip id="74" depart="148.00" from="A3B3" to="B1B0" type="passenger"/>
    <trip id="75" depart="150.00" from="D3D2" to="C2B2" type="passenger"/>
    <trip id="76" depart="152.00" from="B3A3" to="C0B0" type="passenger"/>
    <trip id="77" depart="154.00" from="A2A1" to="B0A0" type="passenger"/>
    <trip id="78" depart="156.00" from="B1C1" to="C1C0" type="passenger"/>
    <trip id="79" depart="158.00" from="B0A0" to="B0A0" type="passenger"/>
    <trip id="80" depart="160.00" from="A1A2" to="C1D1" type="passenger"/>
    <trip id="81" depart="162.00" from="B0A0" to="D2C2" type="passenger"/>
    <trip id="82" depart="164.00" from="D1D0" to="A1A2" type="passenger"/>
    <trip id="83" depart="166.00" from="B0B1" to="C2C1" type="passenger"/>
    <trip id="84" depart="168.00" from="B0A0" to="A2A3" type="passenger"/>
    <trip id="85" depart="170.00" from="D2D1" to="C1B1" type="passenger"/>
    <trip id="86" depart="172.00" from="B3B2" to="C3D3" type="passenger"/>
    <trip id="87" depart="174.00" from="D0C0" to="A3B3" type="passenger"/>
    <trip id="88" depart="176.00" from="A1B1" to="B2C2" type="passenger"/>
    <trip id="89" depart="178.00" from="B2C2" to="B3B2" type="passenger"/>
    <trip id="90" depart="180.00" from="C3B3" to="C2C1" type="passenger"/>
    <trip id="91" depart="182.00" from="D3D2" to="A1B1" type="passenger"/>
    <trip id="92" depart="184.00" from="B2B3" to="B1C1" type="passenger"/>
    <trip id="93" depart="186.00" from="D1D0" to="B0B1" type="passenger"/>
    <trip id="94" depart="188.00" from="A3B3" to="B3A3" type="passenger"/>
    <trip id="95" depart="190.00" from="B2C2" to="B1A1" type="passenger"/>
    <trip id="96" depart="192.00" from="B0B1" to="D2D1" type="passenger"/>
    <trip id="97" depart="194.00" from="B3A3" to="D1D0" type="passenger"/>
    <trip id="98" depart="196.00" from="C0D0" to="A1A0" type="passenger"/>
    <trip id="99" depart="198.00" from="D3D2" to="D1C1" type="passenger"/>
</routes>
